
 + + + + + + + + + + + + + + + + + + + + + + + + + + + + + + + + + + + + + + + +
 + + + + + + + + + + + + + + + + + + + + + + + + + + + + + + + + + + + + + + + +
 + +                                                                         + +
 + +                      ASPEN PLUS CALCULATION HISTORY                     + +
 + +                                                                         + +
 + + + + + + + + + + + + + + + + + + + + + + + + + + + + + + + + + + + + + + + +
 + + + + + + + + + + + + + + + + + + + + + + + + + + + + + + + + + + + + + + + +

 ASPEN PLUS IS A TRADEMARK OF           HOTLINE:
 ASPEN TECHNOLOGY, INC.                 U.S.A. 888/996-7100
 781/221-6400                           EUROPE (44) 1189-226555

 PLATFORM: WIN-X64                                       APRIL 8, 2026       
 VERSION: 41.0   Build 609                               WEDNESDAY   
 INSTALLATION:                                           7:04:37 P.M.        

 THIS COPY OF ASPEN PLUS LICENSED TO UNIVERSITY OF BRITISH CO        


      ASPEN PLUS (R) IS A PROPRIETARY PRODUCT OF ASPEN TECHNOLOGY, INC.
      (ASPENTECH), AND MAY BE USED ONLY UNDER AGREEMENT WITH ASPENTECH.
      RESTRICTED RIGHTS LEGEND:  USE, REPRODUCTION, OR DISCLOSURE BY THE
      U.S. GOVERNMENT IS SUBJECT TO RESTRICTIONS SET FORTH IN 
      (i) FAR 52.227-14, Alt. III, (ii) FAR 52.227-19, (iii) DFARS 
      252.227-7013(c)(1)(ii), or (iv) THE ACCOMPANYING LICENSE AGREEMENT,
      AS APPLICABLE. FOR PURPOSES OF THE FAR, THIS SOFTWARE SHALL BE DEEMED
      TO BE "UNPUBLISHED" AND LICENSED WITH DISCLOSURE PROHIBITIONS.
      CONTRACTOR/SUBCONTRACTOR: ASPEN TECHNOLOGY, INC. 20 CROSBY DRIVE,
      BEDFORD, MA 01730.
 *** INPUT SUMMARY ***

 >>CURRENT RUN

   ORIGINAL RUN                           APRIL 8, 2026       
   7:04:37 P.M.                           WEDNESDAY   
   INPUT FILE: _3806mkd.inm
   RUN ID : _3806mkd
          1    ;
          2    ;Input file created by Aspen Plus Rel. 41.0 at 19:04:37 Wed Apr 8, 2026
          3    ;Directory Z:\Documents\Education\UBC\CHBE 376\Term Project  Runid TERM PROJECT
          4    ;
          5
          6
          7    DYNAMICS
          8        DYNAMICS RESULTS=ON
          9
         10    IN-UNITS MET PRESSURE=bar TEMPERATURE=C DELTA-T=C PDROP=bar  &
         11            INVERSE-PRES='1/bar' SHORT-LENGTH=mm
         12
         13    DEF-STREAMS CONVEN ALL
         14
         15    MODEL-OPTION
         16
         17    DATABANKS 'APV150 PURE41' / 'APV150 AQUEOUS' / 'APV150 SOLIDS' &
         18             / 'APV150 INORGANIC' / 'APESV150 AP-EOS' /  &
         19            'NISTV150 NIST-TRC' / NOASPENPCD
         20
         21    PROP-SOURCES 'APV150 PURE41' / 'APV150 AQUEOUS' /  &
         22            'APV150 SOLIDS' / 'APV150 INORGANIC' / 'APESV150 AP-EOS' &
         23             / 'NISTV150 NIST-TRC'
         24
         25    COMPONENTS
         26        HYDROGEN H2 /
         27        NITROBEN C6H5NO2 /
         28        ANILINE C6H7N-1 /
         29        WATER H2O /
         30        HEPTANE C7H16-1
         31
         32    HENRY-COMPS HC-1 HYDROGEN
         33
         34    SOLVE
         35        RUN-MODE MODE=SIM
         36
         37    FLOWSHEET
         38        BLOCK R101 IN=FEED-MIX OUT=PROD
         39        BLOCK D101 IN=COOL-PR OUT=VAPOUR LIQUID
         40        BLOCK M101 IN=FEED RECYCLE OUT=FEED-MIX
         41        BLOCK S101 IN=VAPOUR OUT=RECYCLE PURGE
         42        BLOCK D102 IN=LIQUID SOLVENT OUT=EXTRCT RFFNT
         43        BLOCK D103 IN=EXTRCT OUT=DSTL BTTM
         44        BLOCK H101 IN=PROD COOL-IN OUT=COOL-PR COOL-OUT
         45
         46    PROPERTIES PSRK
         47        PROPERTIES NRTL / UNIFAC / UNIQUAC
         48
         49    ESTIMATE ALL
         50
         51    PROP-DATA HENRY-1
         52        IN-UNITS MET PRESSURE=bar TEMPERATURE=C DELTA-T=C PDROP=bar  &
         53            INVERSE-PRES='1/bar' SHORT-LENGTH=mm
         54        PROP-LIST HENRY
         55        BPVAL HYDROGEN NITROBEN 37.23217254 -850.3300170  &
         56            -4.500700000 0.0 24.85000000 69.85000000 0.0
         57        BPVAL HYDROGEN ANILINE 13.50557354 -1295.099976 0.0 0.0  &
         58            20.00000000 25.00000000 0.0
         59        BPVAL HYDROGEN WATER 180.0660745 -6993.510000 -26.31190000  &
         60            .0150431000 .8500000000 65.85000000 0.0
         61        BPVAL HYDROGEN HEPTANE 62.03757354 -1196.400024 -9.565100000  &
         62            .0126410000 -35.00000000 50.00000000 0.0
         63
         64    PROP-DATA NRTL-1
         65        IN-UNITS MET PRESSURE=bar TEMPERATURE=C DELTA-T=C PDROP=bar  &
         66            INVERSE-PRES='1/bar' SHORT-LENGTH=mm
         67        PROP-LIST NRTL
         68        BPVAL NITROBEN ANILINE 0.0 284.9657000 .3000000000 0.0 0.0  &
         69            0.0 83.00000000 99.00000000
         70        BPVAL ANILINE NITROBEN 0.0 -216.2556000 .3000000000 0.0  &
         71            0.0 0.0 83.00000000 99.00000000
         72        BPVAL NITROBEN WATER -5.154900000 2270.617200 .2000000000  &
         73            0.0 0.0 0.0 0.0 106.6000000
         74        BPVAL WATER NITROBEN 5.854700000 229.4967000 .2000000000  &
         75            0.0 0.0 0.0 0.0 106.6000000
         76        BPVAL ANILINE WATER -.8969000000 509.3646000 .3000000000  &
         77            0.0 0.0 0.0 99.00000000 168.0000000
         78        BPVAL WATER ANILINE 2.238300000 362.5433000 .3000000000 0.0  &
         79            0.0 0.0 99.00000000 168.0000000
         80        BPVAL ANILINE HEPTANE .7215000000 182.1659000 .3000000000  &
         81            0.0 0.0 0.0 51.50000000 165.5000000
         82        BPVAL HEPTANE ANILINE -1.852200000 1172.585800 .3000000000  &
         83            0.0 0.0 0.0 51.50000000 165.5000000
         84        BPVAL WATER HEPTANE 10.54680000 440.7775000 .2000000000 0.0  &
         85            0.0 0.0 0.0 50.00000000
         86        BPVAL HEPTANE WATER -9.865200000 4795.660200 .2000000000  &
         87            0.0 0.0 0.0 0.0 50.00000000
         88
         89    PROP-DATA UNIQ-1
         90        IN-UNITS MET PRESSURE=bar TEMPERATURE=C DELTA-T=C PDROP=bar  &
         91            INVERSE-PRES='1/bar' SHORT-LENGTH=mm
         92        PROP-LIST UNIQ
         93        BPVAL NITROBEN ANILINE 0.0 -159.2074000 0.0 0.0  &
         94            83.00000000 99.00000000 0.0
         95        BPVAL ANILINE NITROBEN 0.0 125.3297000 0.0 0.0 83.00000000  &
         96            99.00000000 0.0
         97        BPVAL NITROBEN WATER 0.0 -613.0500000 0.0 0.0 20.00000000  &
         98            40.00000000 0.0
         99        BPVAL WATER NITROBEN 0.0 -254.9500000 0.0 0.0 20.00000000  &
        100            40.00000000 0.0
        101        BPVAL ANILINE WATER -.4676000000 -172.2809000 0.0 0.0  &
        102            99.00000000 168.0000000 0.0
        103        BPVAL WATER ANILINE .6554000000 -168.0642000 0.0 0.0  &
        104            99.00000000 168.0000000 0.0
        105        BPVAL ANILINE HEPTANE -1.586100000 638.9305000 0.0 0.0  &
        106            51.50000000 165.5000000 0.0
        107        BPVAL HEPTANE ANILINE 2.881200000 -1390.510700 0.0 0.0  &
        108            51.50000000 165.5000000 0.0
        109        BPVAL WATER HEPTANE 0.0 -575.8500000 0.0 0.0 20.00000000  &
        110            40.00000000 0.0
        111        BPVAL HEPTANE WATER 0.0 -1283.200000 0.0 0.0 20.00000000  &
        112            40.00000000 0.0
        113
        114    STREAM COOL-IN
        115        SUBSTREAM MIXED TEMP=20. PRES=1. MASS-FLOW=100.
        116        MASS-FRAC WATER 1.
        117
        118    STREAM FEED
        119        SUBSTREAM MIXED TEMP=25. PRES=1.5 <MPa>
        120        MOLE-FLOW HYDROGEN 6875000. <kmol/oper-year> / NITROBEN  &
        121            1356437.5 <kmol/oper-year> / ANILINE 0. <kmol/oper-year> /  &
        122            WATER 18562.5 <kmol/oper-year>
        123
        124    STREAM SOLVENT
        125        SUBSTREAM MIXED TEMP=50. PRES=0.1 <MPa> MOLE-FLOW=100.
        126        MOLE-FRAC HEPTANE 1.
        127
        128    BLOCK M101 MIXER
        129        PARAM
        130
        131    BLOCK S101 FSPLIT
        132        FRAC RECYCLE 0.8
        133
        134    BLOCK D101 FLASH2
        135        PARAM TEMP=50. PRES=0. <MPa> NPHASE=3
        136        BLOCK-OPTION FREE-WATER=NO
        137
        138    BLOCK H101 HEATX
        139        PARAM T-HOT=50. TYPE=COUNTERCURRE SCUT-INTVLS=NO
        140        FEEDS HOT=PROD COLD=COOL-IN
        141        OUTLETS-HOT COOL-PR
        142        OUTLETS-COLD COOL-OUT
        143        HOT-SIDE DPPARMOPT=NO
        144        COLD-SIDE DPPARMOPT=NO
        145        TQ-PARAM CURVE=YES
        146
        147    BLOCK D103 RADFRAC
        148        PARAM NSTAGE=8 ALGORITHM=NONIDEAL INIT-OPTION=STANDARD  &
        149            MAXOL=25 NPHASE=3 DAMPING=NONE
        150        PARAM2
        151        COL-CONFIG CONDENSER=PARTIAL-V
        152        FEEDS EXTRCT 2
        153        PRODUCTS DSTL 1 V / BTTM 8 L
        154        P-SPEC 1 0.1 <MPa>
        155        COL-SPECS D:F=0.51 MOLE-RR=0.135
        156        L2-COMPS WATER
        157        L2-STAGES 1 8
        158        PROPERTIES UNIFAC HENRY-COMPS=HC-1 FREE-WATER=STEAM-TA  &
        159            SOLU-WATER=3 TRUE-COMPS=YES
        160        BLOCK-OPTION FREE-WATER=NO
        161
        162    BLOCK D102 EXTRACT
        163        DESCRIPTION 'Liquid-Liquid Extraction Column'
        164        PARAM NSTAGE=10
        165        FEEDS SOLVENT 10 / LIQUID 1
        166        PRODUCTS EXTRCT 1 L2 / RFFNT 10 L1
        167        P-SPEC 1 0.1 <MPa>
        168        L1-COMPS WATER
        169        L2-COMPS HEPTANE
        170        T-EST 1 50.
        171        PROPERTIES UNIFAC HENRY-COMPS=HC-1 FREE-WATER=STEAM-TA  &
        172            SOLU-WATER=3 TRUE-COMPS=YES
        173
        174    BLOCK R101 RPLUG
        175        PARAM TYPE=T-SPEC NTUBE=50 LENGTH=4.5 DIAM=0.0978  &
        176            IGN-CAT-VOL=NO CAT-PRESENT=YES BED-VOIDAGE=0.6  &
        177            CAT-RHO=1422. <kg/cum>
        178        T-SPEC 0.0 350.
        179        REACTIONS RXN-IDS=R-1
        180
        181    DESIGN-SPEC DS-1
        182        DEFINE STEMP STREAM-VAR STREAM=COOL-OUT SUBSTREAM=MIXED  &
        183            VARIABLE=TEMP UOM="C"
        184        SPEC "STEMP" TO "100"
        185        TOL-SPEC "0.1"
        186        VARY MASS-FLOW STREAM=COOL-IN SUBSTREAM=MIXED  &
        187            COMPONENT=WATER UOM="kg/hr"
        188        LIMITS "100" "2000000"
        189
        190    EO-CONV-OPTI
        191
        192    CALCULATOR H2-FEED
        193        DEFINE H2RCY MOLE-FLOW STREAM=RECYCLE SUBSTREAM=MIXED  &
        194            COMPONENT=HYDROGEN UOM="kmol/hr"
        195        DEFINE NBFEED MOLE-FLOW STREAM=FEED SUBSTREAM=MIXED  &
        196            COMPONENT=NITROBEN UOM="kmol/hr"
        197        DEFINE H2FEED MOLE-FLOW STREAM=FEED SUBSTREAM=MIXED  &
        198            COMPONENT=HYDROGEN UOM="kmol/hr"
        199    F     H2FEED = 5 * NBFEED - H2RCY
        200        READ-VARS H2RCY NBFEED
        201        WRITE-VARS H2FEED
        202
        203    SENSITIVITY D101-T
        204        DESCRIPTION 'Operating temperature of flash chamber D101'
        205        DEFINE ANIVAP MOLE-FLOW STREAM=VAPOUR SUBSTREAM=MIXED  &
        206            COMPONENT=ANILINE UOM="kmol/hr"
        207        DEFINE ANILIQ MOLE-FLOW STREAM=LIQUID SUBSTREAM=MIXED  &
        208            COMPONENT=ANILINE UOM="kmol/hr"
        209        DEFINE HYDROVAP MOLE-FLOW STREAM=VAPOUR SUBSTREAM=MIXED  &
        210            COMPONENT=HYDROGEN UOM="kmol/hr"
        211        DEFINE HYDROLIQ MOLE-FLOW STREAM=LIQUID SUBSTREAM=MIXED  &
        212            COMPONENT=HYDROGEN UOM="kmol/hr"
        213        DEFINE WATERVAP MOLE-FLOW STREAM=VAPOUR SUBSTREAM=MIXED  &
        214            COMPONENT=WATER UOM="kmol/hr"
        215        DEFINE WATERLIQ MOLE-FLOW STREAM=LIQUID SUBSTREAM=MIXED  &
        216            COMPONENT=WATER UOM="kmol/hr"
        217        TABULATE 1 "ANIVAP"
        218        TABULATE 2 "ANILIQ"
        219        TABULATE 3 "HYDROVAP"
        220        TABULATE 4 "HYDROLIQ"
        221        TABULATE 5 "WATERVAP"
        222        TABULATE 6 "WATERLIQ"
        223        TABULATE 7 "ANILIQ/(ANILIQ+ANIVAP)"
        224        TABULATE 8 "WATERLIQ/(WATERLIQ+WATERVAP)"
        225        VARY BLOCK-VAR BLOCK=D101 VARIABLE=TEMP SENTENCE=PARAM UOM= &
        226            "C"
        227        RANGE OPT-LIST=RANGE LOWER="0" UPPER="200" INCR="5"
        228
        229    SENSITIVITY DSTL-RTO
        230        DEFINE ANIFRAC MASS-FRAC STREAM=BTTM SUBSTREAM=MIXED  &
        231            COMPONENT=ANILINE
        232        DEFINE ANIEXT MOLE-FLOW STREAM=EXTRCT SUBSTREAM=MIXED  &
        233            COMPONENT=ANILINE UOM="kmol/hr"
        234        DEFINE ANIBTM MOLE-FLOW STREAM=BTTM SUBSTREAM=MIXED  &
        235            COMPONENT=ANILINE UOM="kmol/hr"
        236        TABULATE 1 "ANIFRAC"
        237        TABULATE 3 "ANIEXT"
        238        TABULATE 4 "ANIBTM"
        239        TABULATE 2 "ANIBTM/ANIEXT" COL-LABEL="RECOVERY"
        240        VARY BLOCK-VAR BLOCK=D103 VARIABLE=D:F SENTENCE=COL-SPECS
        241        RANGE OPT-LIST=RANGE LOWER="0.2" UPPER="0.6" INCR="0.05"
        242
        243    SENSITIVITY HPT-RATE
        244        DESCRIPTION  &
        245            'Heptane solvent molar flowrate into D102 LL extraction column'
        246        DEFINE ANIFEED MOLE-FLOW STREAM=LIQUID SUBSTREAM=MIXED  &
        247            COMPONENT=ANILINE UOM="kmol/hr"
        248        DEFINE ANIEXT MOLE-FLOW STREAM=EXTRCT SUBSTREAM=MIXED  &
        249            COMPONENT=ANILINE UOM="kmol/hr"
        250        DEFINE ANIBTM MOLE-FLOW STREAM=BTTM SUBSTREAM=MIXED  &
        251            COMPONENT=ANILINE UOM="kmol/hr"
        252        DEFINE ANIFRAC MOLE-FRAC STREAM=BTTM SUBSTREAM=MIXED  &
        253            COMPONENT=ANILINE
        254        TABULATE 1 "ANIFEED"
        255        TABULATE 2 "ANIEXT"
        256        TABULATE 3 "ANIBTM"
        257        TABULATE 4 "ANIEXT/ANIFEED" COL-LABEL="LL REC"
        258        TABULATE 5 "ANIBTM/ANIEXT" COL-LABEL="DSTL REC"
        259        TABULATE 6 "ANIFRAC"
        260        VARY STREAM-VAR STREAM=SOLVENT SUBSTREAM=MIXED  &
        261            VARIABLE=MOLE-FLOW UOM="kmol/hr"
        262        RANGE OPT-LIST=RANGE LOWER="25" UPPER="250" INCR="25"
        263
        264    SENSITIVITY LLE-DSTL
        265        DEFINE ANIFEED MOLE-FLOW STREAM=LIQUID SUBSTREAM=MIXED  &
        266            COMPONENT=ANILINE UOM="kmol/hr"
        267        DEFINE ANIEXT MOLE-FLOW STREAM=EXTRCT SUBSTREAM=MIXED  &
        268            COMPONENT=ANILINE UOM="kmol/hr"
        269        DEFINE ANIBTM MOLE-FLOW STREAM=BTTM SUBSTREAM=MIXED  &
        270            COMPONENT=ANILINE UOM="kmol/hr"
        271        DEFINE ANIFRAC MOLE-FRAC STREAM=BTTM SUBSTREAM=MIXED  &
        272            COMPONENT=ANILINE
        273        TABULATE 1 "ANIFEED"
        274        TABULATE 2 "ANIEXT"
        275        TABULATE 3 "ANIBTM"
        276        TABULATE 4 "ANIFRAC"
        277        TABULATE 5 "ANIEXT/ANIFEED"
        278        TABULATE 6 "ANIBTM/ANIEXT" COL-LABEL="RECOVERY"
        279        VARY STREAM-VAR STREAM=SOLVENT SUBSTREAM=MIXED  &
        280            VARIABLE=MOLE-FLOW UOM="kmol/hr"
        281        RANGE OPT-LIST=RANGE LOWER="100" UPPER="150" INCR="5"
        282        VARY BLOCK-VAR BLOCK=D103 VARIABLE=D:F SENTENCE=COL-SPECS
        283        RANGE OPT-LIST=RANGE LOWER="0.35" UPPER="0.55" INCR="0.01"
        284
        285    SENSITIVITY RSIZE-1
        286        DESCRIPTION 'Length and tube number of reactor R101'
        287        DEFINE BENIN MOLE-FLOW STREAM=FEED SUBSTREAM=MIXED  &
        288            COMPONENT=NITROBEN UOM="kmol/hr"
        289        DEFINE BENOUT MOLE-FLOW STREAM=PROD SUBSTREAM=MIXED  &
        290            COMPONENT=NITROBEN UOM="kmol/hr"
        291        DEFINE ANIPROD MASS-FLOW STREAM=PROD SUBSTREAM=MIXED  &
        292            COMPONENT=ANILINE UOM="tonne/oper-year"
        293        TABULATE 1 "ANIPROD"
        294        TABULATE 2 "(benin-benout)/benin"
        295        VARY BLOCK-VAR BLOCK=R101 VARIABLE=LENGTH SENTENCE=PARAM  &
        296            UOM="meter"
        297        RANGE OPT-LIST=RANGE LOWER="2" UPPER="12" INCR="0.5"
        298        VARY BLOCK-VAR BLOCK=R101 VARIABLE=NTUBE SENTENCE=PARAM
        299        RANGE OPT-LIST=RANGE LOWER="20" UPPER="204" INCR="2"
        300
        301    SENSITIVITY S101-SF
        302        DESCRIPTION 'S101 Split Fraction going into the recycle stream'
        303        DEFINE NBIN MOLE-FLOW STREAM=FEED SUBSTREAM=MIXED  &
        304            COMPONENT=NITROBEN UOM="kmol/hr"
        305        DEFINE NBOUT MOLE-FLOW STREAM=PROD SUBSTREAM=MIXED  &
        306            COMPONENT=NITROBEN UOM="kmol/hr"
        307        DEFINE ANIPROD MOLE-FLOW STREAM=PROD SUBSTREAM=MIXED  &
        308            COMPONENT=ANILINE UOM="kmol/hr"
        309        DEFINE ANIREC MOLE-FLOW STREAM=LIQUID SUBSTREAM=MIXED  &
        310            COMPONENT=ANILINE UOM="kmol/hr"
        311        TABULATE 1 "NBIN"
        312        TABULATE 2 "NBOUT"
        313        TABULATE 3 "ANIPROD"
        314        TABULATE 4 "ANIREC"
        315        TABULATE 5 "(NBIN-NBOUT)/NBIN"
        316        TABULATE 6 "ANIREC/ANIPROD"
        317        VARY BLOCK-VAR BLOCK=S101 SENTENCE=FRAC VARIABLE=FRAC  &
        318            ID1=RECYCLE
        319        RANGE OPT-LIST=RANGE LOWER="0.05" UPPER="0.95" INCR="0.05"
        320
        321    CONSTRAINT AN-EXT-R
        322    ;  "Aniline recovery in D102's extract stream"
        323
        324        DEFINE ANIIN MOLE-FLOW STREAM=LIQUID SUBSTREAM=MIXED  &
        325            COMPONENT=ANILINE UOM="kmol/hr"
        326        DEFINE ANIOUT MOLE-FLOW STREAM=EXTRCT SUBSTREAM=MIXED  &
        327            COMPONENT=ANILINE UOM="kmol/hr"
        328        SPEC "ANIOUT/ANIIN" GE "0.999"
        329        TOL-SPEC "0.001"
        330
        331    OPTIMIZATION HPT-RATE
        332    ;  'Heptane solvent flow rate into D102 LL extraction'
        333
        334        DEFINE HPTFLOW MOLE-FLOW STREAM=SOLVENT SUBSTREAM=MIXED  &
        335            COMPONENT=HEPTANE UOM="kmol/hr"
        336        MINIMIZE "HPTFLOW"
        337        CONSTRAINTS AN-EXT-R
        338        VARY STREAM-VAR STREAM=SOLVENT SUBSTREAM=MIXED  &
        339            VARIABLE=MOLE-FLOW UOM="kmol/hr"
        340        LIMITS "1" "200"
        341
        342    STREAM-REPOR MOLEFLOW
        343
        344    PROPERTY-REP PCES
        345
        346    REACTIONS R-1 POWERLAW
        347        REAC-DATA 1 PHASE=V CBASIS=PARTIALPRES RBASIS=CAT-WT
        348        RATE-CON 1 PRE-EXP=0.0001125 ACT-ENERGY=68507.36 <kJ/kmol>
        349        STOIC 1 MIXED NITROBEN -1. / HYDROGEN -3. / ANILINE 1. / &
        350            WATER 2.
        351        POWLAW-EXP 1 MIXED NITROBEN 0.5 / MIXED HYDROGEN 0.5
        352
        353    PROP-TABLE BINRY-1 FLASHCURVE
        354        IN-UNITS MET PRESSURE=MPa TEMPERATURE=C DELTA-T=C PDROP=bar  &
        355            INVERSE-PRES='1/bar' SHORT-LENGTH=mm
        356        PROPERTIES PSRK FREE-WATER=STEAM-TA SOLU-WATER=3  &
        357            TRUE-COMPS=YES
        358        BLOCK-OPTION FREE-WATER=NO
        359        MOLE-FLOW ANILINE 1 /  WATER  1
        360        STATE VFRAC=0.0
        361        ANALYSIS ANAL-TYPE=TXY
        362        VARY PRES
        363        RANGE LIST=1.5
        364        VARY MOLEFRAC COMP=WATER
        365        RANGE VARVALUE=RANGE LOWER=0.0 UPPER=1.0 NPOINT=100
        366        PARAM NPHASE=3 MAXIT=100
        367
        368    PROP-TABLE BINRY-2 FLASHCURVE
        369        IN-UNITS MET PRESSURE=MPa TEMPERATURE=C DELTA-T=C PDROP=bar  &
        370            INVERSE-PRES='1/bar' SHORT-LENGTH=mm
        371        PROPERTIES PSRK FREE-WATER=STEAM-TA SOLU-WATER=3  &
        372            TRUE-COMPS=YES
        373        MOLE-FLOW ANILINE 1 /  WATER  1
        374        STATE VFRAC=0.0
        375        ANALYSIS ANAL-TYPE=TXY
        376        VARY PRES
        377        RANGE LIST=0.1
        378        VARY MOLEFRAC COMP=WATER
        379        RANGE VARVALUE=RANGE LOWER=0.0 UPPER=1.0 NPOINT=50
        380        PARAM NPHASE=3
        381
        382    DISABLE
        383        SENSITIVITY D101-T DSTL-RTO HPT-RATE LLE-DSTL RSIZE-1  &
        384            S101-SF
        385        CONSTRAINT AN-EXT-R
        386        OPTIMIZATION HPT-RATE
        387    ;
        388    ;
        389    ;
        390    ;
        391    ;
 *** INPUT TRANSLATOR MESSAGES ***

      SQLLOCALDB.APESV150 : (DATAVERSION - 41.0.0.10)                         
      SQLLOCALDB.APV150 : (DATAVERSION - 41.0.0.9)                            
      SQLLOCALDB.FACTV150 : (DATAVERSION - 41.0.0.6)                          
      SQLLOCALDB.NISTV150 : (DATAVERSION - 41.0.0.7)                          
  *** THIS RUN USES THE PROPERTIES ENTERPRISE DATABASE ***

      INFORMATION                                              (PSTOP1AP.1)     
      THERE ARE HENRY COMPONENTS DEFINED IN THIS CASE, THE BINARY DATABANK      
      WILL BE SEARCHED AUTOMATICALLY FOR ANY AVAILABLE HENRY CONSTANTS.         



  *   WARNING WHILE CHECKING INPUT SPECIFICATIONS              (PRPCHK.1)       
      INCONSISTENT PROPERTIES DETECTED FOR 1 STREAMS                            
      SOURCE BLOCK        PROPERTIES STREAM   DESTINATION BLOCK   PROPERTIES    
      =================== ========== ======== =================== ==========    
      D101                PSRK       LIQUID   D102                UNIFAC        
 
 DESIGN SPEC: DS-1 WILL BE INTERPRETED 
 CONSTRAINT: AN-EXT-R WILL BE INTERPRETED 
 CALCULATOR BLOCK: H2-FEED WILL BE INTERPRETED 
 SENSITIVITY BLOCK: D101-T WILL BE INTERPRETED 
 SENSITIVITY BLOCK: DSTL-RTO WILL BE INTERPRETED 
 SENSITIVITY BLOCK: HPT-RATE WILL BE INTERPRETED 
 SENSITIVITY BLOCK: LLE-DSTL WILL BE INTERPRETED 
 SENSITIVITY BLOCK: RSIZE-1 WILL BE INTERPRETED 
 SENSITIVITY BLOCK: S101-SF WILL BE INTERPRETED 
 OPTIMIZATION: HPT-RATE WILL BE INTERPRETED 
 

 PDF updated                                                                      TIME =      1.15

 *** CALCULATION TRACE ***


 *** FLOWSHEET ANALYSIS MESSAGES ***

 FLOWSHEET CONNECTIVITY BY STREAMS       

   STREAM     SOURCE     DEST           STREAM     SOURCE     DEST
   FEED       ----       M101           SOLVENT    ----       D102    
   COOL-IN    ----       H101           PROD       R101       H101    
   VAPOUR     D101       S101           LIQUID     D101       D102    
   FEED-MIX   M101       R101           RECYCLE    S101       M101    
   PURGE      S101       ----           EXTRCT     D102       D103    
   RFFNT      D102       ----           DSTL       D103       ----    
   BTTM       D103       ----           COOL-PR    H101       D101    
   COOL-OUT   H101       ----                                         

 FLOWSHEET CONNECTIVITY BY BLOCKS        

   BLOCK        INLETS                         OUTLETS
   R101         FEED-MIX                       PROD                        
   D101         COOL-PR                        VAPOUR LIQUID               
   M101         FEED RECYCLE                   FEED-MIX                    
   S101         VAPOUR                         RECYCLE PURGE               
   D102         LIQUID SOLVENT                 EXTRCT RFFNT                
   D103         EXTRCT                         DSTL BTTM                   
   H101         PROD COOL-IN                   COOL-PR COOL-OUT            

      BLOCK $OLVER01 (METHOD: WEGSTEIN) HAS BEEN DEFINED TO CONVERGE
               STREAMS: RECYCLE

  *   WARNING DURING FLOWSHEET ANALYSIS                        (AF2MER.2)       
      BECAUSE TEAR-VAR=NO IN CONV-OPTIONS, AN INFORMATION TEAR:                 
         STREAM $WRV9     FROM H2-FEED      TO FST$FEED                         
      WILL NOT BE CONVERGED BY A CONVERGENCE BLOCK. THIS MAY CAUSE              
      CONVERGENCE PROBLEMS OR MISLEADING RESULTS. IF THIS STREAM IS             
      A TEAR, SET TEAR-VAR=YES IN CONV-OPTIONS TO CAUSE IT TO BE                
      CONVERGED. OTHERWISE, PLEASE CHECK THE LOCATION OF FORTRAN                
      BLOCK H2-FEED      IN THE SEQUENCE AND CONSIDER MOVING                    
      IT BY USING THE 'EXECUTE' KEYWORD OR OTHER METHODS.                       

      BLOCK $OLVER02 (METHOD: SECANT  ) HAS BEEN DEFINED TO CONVERGE
                SPECS : DS-1

      COMPUTATION ORDER FOR THE FLOWSHEET IS:
      $OLVER01 M101 R101 
      |  $OLVER02 H101 
      |  (RETURN $OLVER02) 
      |  D101 S101 H2-FEED 
      (RETURN $OLVER01) 
      D102 D103 

Calculations begin                                                              time      0.06


 SIMULATION CALCULATIONS BEGIN                                                    TIME =      0.06

      CONVERGENCE BLOCK $OLVER01  METHOD: WEGSTEIN                                TIME =      0.06
      ITER   0 For Tear Streams: RECYCLE

      ENTHALPY CALCULATION FOR INLET STREAM FEED OF BLOCK M101                    TIME =      0.06
      KODE = 2  NTRIAL =   5  T = 298.1500  P = 1.500000E+06  V = 0.833178      Q =  0.00000    

      UOS BLOCK M101     MODEL: MIXER                                             TIME =      0.06
      KODE = 1  NTRIAL =  15  T = 298.1500  P = 1.500000E+06  V = 0.833178      Q =  0.00000    

      UOS BLOCK R101     MODEL: RPLUG                                             TIME =      0.07
        AT REACTOR EXIT :
        LENGTH =   4.5000      DIAMETER =  0.97800E-01  RESIDENCE TIME =   1.2861    
        PROCESS STREAM T =    623.15     P =   0.15000E+07 H =  -0.13219E+08 V =    1.0000    

      CONVERGENCE BLOCK $OLVER02  METHOD: SECANT                                  TIME =      0.07
     SPECS: DS-1

      ENTHALPY CALCULATION FOR INLET STREAM COOL-IN OF BLOCK H101                 TIME =      0.07
      KODE = 2  NTRIAL =   1  T = 293.1500  P =  100000.      V =  0.00000      Q =  0.00000    

      UOS BLOCK H101     MODEL: HEATX                                             TIME =      0.07
      SPECIFICATION: HOT OUTLET TEMP       323.15    
      FLOW TYPE:     COUNTERCURRENT  

  **  ERROR WHILE EXECUTING UNIT OPERATIONS BLOCK: "H101" (MODEL: "HEATX")      
                                                               (HEATX.4)        
      TEMPERATURE CROSSOVER DETECTED                                            
      RE-CALCULATING WITH MINIMUM APPROACH TEMP. SPEC                           
      HOT:  TIN=  623.15  PIN=0.15000E+07   TOUT=  617.25  POUT=0.15000E+07
      COLD: TIN=  293.15  PIN=0.10000E+06   TOUT=  622.15  POUT=0.10000E+06
                              DUTY= 86001.    

      CONVERGENCE BLOCK $OLVER02  METHOD: SECANT                                  TIME =      0.08
      ITER   0 For Specs:        DS-1
      ---FLASH STREAM COOL-IN :
      KODE = 2  NTRIAL =   1  T = 293.1500  P =  100000.      V =  0.00000      Q =  0.00000    
      SPEC   1 ERROR =   249.00     OLD X =  0.15419E-02 NEW X =  0.30991    

  LOOP $OLVER02 ITER    1:   1 VARS NOT CONVERGED, MAX ERR/TOL      2490.0        TIME =      0.08

      UOS BLOCK H101     MODEL: HEATX                                             TIME =      0.08
      SPECIFICATION: HOT OUTLET TEMP       323.15    
      FLOW TYPE:     COUNTERCURRENT  
      HOT:  TIN=  623.15  PIN=0.15000E+07   TOUT=  323.15  POUT=0.15000E+07
      COLD: TIN=  293.15  PIN=0.10000E+06   TOUT=  372.73  POUT=0.10000E+06
                              DUTY=0.96425E+07

  *   WARNING WHILE EXECUTING UNIT OPERATIONS BLOCK: "H101" (MODEL: "HEATX")    
                                                               (CHKSTB.2)       
      STABILITY CHECK FOR LIQUID PHASE: STABILITY CRITERION NOT SATISFIED FOR   
      COMPONENT "WATER". STABILITY INDEX IS (1.1357), MOLE FRACTION IS (        
      0.6638 ). THIS PHASE MAY BE UNSTABLE. TRY USING 3-PHASE (OR FREE-WATER,   
      IF APPLICABLE) CALCULATIONS.                                              

      CONVERGENCE BLOCK $OLVER02  METHOD: SECANT                                  TIME =      0.09
      ITER   2 For Specs:        DS-1
      ---FLASH STREAM COOL-IN :
      KODE = 2  NTRIAL =   1  T = 293.1500  P =  100000.      V =  0.00000      Q =  0.00000    
      SPEC   1 ERROR = -0.42243     OLD X =  0.30991     NEW X =  0.30938    

  LOOP $OLVER02 ITER    2:   1 VARS NOT CONVERGED, MAX ERR/TOL     -4.2243        TIME =      0.09

      UOS BLOCK H101     MODEL: HEATX                                             TIME =      0.09
      SPECIFICATION: HOT OUTLET TEMP       323.15    
      FLOW TYPE:     COUNTERCURRENT  
      HOT:  TIN=  623.15  PIN=0.15000E+07   TOUT=  323.15  POUT=0.15000E+07
      COLD: TIN=  293.15  PIN=0.10000E+06   TOUT=  372.73  POUT=0.10000E+06
                              DUTY=0.96425E+07

  *   WARNING WHILE EXECUTING UNIT OPERATIONS BLOCK: "H101" (MODEL: "HEATX")    
                                                               (CHKSTB.2)       
      STABILITY CHECK FOR LIQUID PHASE: STABILITY CRITERION NOT SATISFIED FOR   
      COMPONENT "WATER". STABILITY INDEX IS (1.1357), MOLE FRACTION IS (        
      0.6638 ). THIS PHASE MAY BE UNSTABLE. TRY USING 3-PHASE (OR FREE-WATER,   
      IF APPLICABLE) CALCULATIONS.                                              

      CONVERGENCE BLOCK $OLVER02  METHOD: SECANT                                  TIME =      0.09
      ITER   3 For Specs:        DS-1

  *   WARNING WHILE EXECUTING CONVERGENCE BLOCK: "$OLVER02" (MODEL: "SECANT")   
                                                               (MODSEC.1)       
      SPEC FUNCTION NOT CHANGING, POSSIBLY HAS A FLAT  RESPONSE                 
      TO THE MANIPULATED PARAMETER WITHIN THE GIVEN BOUNDS.                     
      ---FLASH STREAM COOL-IN :
      KODE = 2  NTRIAL =   1  T = 293.1500  P =  100000.      V =  0.00000      Q =  0.00000    

                    DESIGN SP/
     VAR#  VAR NAME CALCULATOR VARIABLE DESCRIPTION                              NEW X            G(X)             X           ERR/TOL
     ----  -------- --------   ------------------------------               --------------- --------------- --------------- ---------------
        1  VARY     DS-1    (3) COOL-IN.MIXED.WATER.MASSFLOW                 0.30938442       0.0000000      0.30938442      -4.2242874      *   

  LOOP $OLVER02 ITER    3:   1 VARS NOT CONVERGED, MAX ERR/TOL     -4.2243        TIME =      0.09

      UOS BLOCK D101     MODEL: FLASH2                                            TIME =      0.09
      KODE = 2  NTRIAL =  10  T = 323.1500  P = 1.500000E+06  V = 0.409028      BETA = 0.518462      Q = -15487.1    

      UOS BLOCK S101     MODEL: FSPLIT                                            TIME =      0.09
      NO. TEMP ITER =    1     TEMP =  323.150    
      KODE = 1  NTRIAL =   1  T = 323.1500  P = 1.500000E+06  V =  1.00000      Q =  0.00000    
      SPLIT FRACTIONS:  0.80000D+00    0.20000D+00

      CALCULATOR BLOCK H2-FEED                                                    TIME =      0.10
      ---FLASH STREAM FEED    :
      KODE = 2  NTRIAL =   5  T = 298.1500  P = 1.500000E+06  V = 0.767286      Q = -1193.80    

      CONVERGENCE BLOCK $OLVER01  METHOD: WEGSTEIN                                TIME =      0.10
      ITER   1 For Tear Streams: RECYCLE

      --FLASH TEAR STREAM RECYCLE 
      NO. TEMP ITER =    1     TEMP =  323.150    
      KODE = 1  NTRIAL =   1  T = 323.1500  P = 1.500000E+06  V =  1.00000      Q =  0.00000    

  LOOP $OLVER01 ITER    1:   4 VARS NOT CONVERGED, MAX ERR/TOL     0.10000E+07    TIME =      0.10

      UOS BLOCK M101     MODEL: MIXER                                             TIME =      0.10
      KODE = 1  NTRIAL =  14  T = 301.6683  P = 1.500000E+06  V = 0.830313      Q =  0.00000    

      UOS BLOCK R101     MODEL: RPLUG                                             TIME =      0.10
        AT REACTOR EXIT :
        LENGTH =   4.5000      DIAMETER =  0.97800E-01  RESIDENCE TIME =   1.2995    
        PROCESS STREAM T =    623.15     P =   0.15000E+07 H =  -0.13392E+08 V =    1.0000    

      CONVERGENCE BLOCK $OLVER02  METHOD: SECANT                                  TIME =      0.11
      ITER   0 For Specs:        DS-1
      ---FLASH STREAM COOL-IN :
      KODE = 2  NTRIAL =   1  T = 293.1500  P =  100000.      V =  0.00000      Q =  0.00000    

      UOS BLOCK H101     MODEL: HEATX                                             TIME =      0.11
      SPECIFICATION: HOT OUTLET TEMP       323.15    
      FLOW TYPE:     COUNTERCURRENT  
      HOT:  TIN=  623.15  PIN=0.15000E+07   TOUT=  323.15  POUT=0.15000E+07
      COLD: TIN=  293.15  PIN=0.10000E+06   TOUT=  372.73  POUT=0.10000E+06
                              DUTY=0.96528E+07

  *   WARNING WHILE EXECUTING UNIT OPERATIONS BLOCK: "H101" (MODEL: "HEATX")    
                                                               (CHKSTB.2)       
      STABILITY CHECK FOR LIQUID PHASE: STABILITY CRITERION NOT SATISFIED FOR   
      COMPONENT "WATER". STABILITY INDEX IS (1.1352), MOLE FRACTION IS (        
      0.6655 ). THIS PHASE MAY BE UNSTABLE. TRY USING 3-PHASE (OR FREE-WATER,   
      IF APPLICABLE) CALCULATIONS.                                              

      CONVERGENCE BLOCK $OLVER02  METHOD: SECANT                                  TIME =      0.12
      ITER   1 For Specs:        DS-1
      ---FLASH STREAM COOL-IN :
      KODE = 2  NTRIAL =   1  T = 293.1500  P =  100000.      V =  0.00000      Q =  0.00000    
      SPEC   1 ERROR = -0.42243     OLD X =  0.30938     NEW X =  0.30886    

  LOOP $OLVER02 ITER    1:   1 VARS NOT CONVERGED, MAX ERR/TOL     -4.2243        TIME =      0.12

      UOS BLOCK H101     MODEL: HEATX                                             TIME =      0.13
      SPECIFICATION: HOT OUTLET TEMP       323.15    
      FLOW TYPE:     COUNTERCURRENT  
      HOT:  TIN=  623.15  PIN=0.15000E+07   TOUT=  323.15  POUT=0.15000E+07
      COLD: TIN=  293.15  PIN=0.10000E+06   TOUT=  372.73  POUT=0.10000E+06
                              DUTY=0.96528E+07

  *   WARNING WHILE EXECUTING UNIT OPERATIONS BLOCK: "H101" (MODEL: "HEATX")    
                                                               (CHKSTB.2)       
      STABILITY CHECK FOR LIQUID PHASE: STABILITY CRITERION NOT SATISFIED FOR   
      COMPONENT "WATER". STABILITY INDEX IS (1.1352), MOLE FRACTION IS (        
      0.6655 ). THIS PHASE MAY BE UNSTABLE. TRY USING 3-PHASE (OR FREE-WATER,   
      IF APPLICABLE) CALCULATIONS.                                              

      CONVERGENCE BLOCK $OLVER02  METHOD: SECANT                                  TIME =      0.13
      ITER   2 For Specs:        DS-1
      A FLAT RESPONSE REGION DETECTED FOR SPEC FUNCTION = -0.422429    

  *   WARNING WHILE EXECUTING CONVERGENCE BLOCK: "$OLVER02" (MODEL: "SECANT")   
                                                               (MODSEC.1)       
      SPEC FUNCTION NOT CHANGING, POSSIBLY HAS A FLAT  RESPONSE                 
      TO THE MANIPULATED PARAMETER WITHIN THE GIVEN BOUNDS.                     
      ---FLASH STREAM COOL-IN :
      KODE = 2  NTRIAL =   1  T = 293.1500  P =  100000.      V =  0.00000      Q =  0.00000    

                    DESIGN SP/
     VAR#  VAR NAME CALCULATOR VARIABLE DESCRIPTION                              NEW X            G(X)             X           ERR/TOL
     ----  -------- --------   ------------------------------               --------------- --------------- --------------- ---------------
        1  VARY     DS-1    (3) COOL-IN.MIXED.WATER.MASSFLOW                 0.30886217       0.0000000      0.30886217      -4.2242874      *   

  LOOP $OLVER02 ITER    2:   1 VARS NOT CONVERGED, MAX ERR/TOL     -4.2243        TIME =      0.14

      UOS BLOCK D101     MODEL: FLASH2                                            TIME =      0.14
      KODE = 2  NTRIAL =   1  T = 323.1500  P = 1.500000E+06  V = 0.399618      BETA = 0.484097      Q = -15481.5    

      UOS BLOCK S101     MODEL: FSPLIT                                            TIME =      0.14
      KODE = 1  NTRIAL =  10  T = 323.1500  P = 1.500000E+06  V =  1.00000      Q =  0.00000    
      SPLIT FRACTIONS:  0.80000D+00    0.20000D+00

      CALCULATOR BLOCK H2-FEED                                                    TIME =      0.14
      ---FLASH STREAM FEED    :
      KODE = 2  NTRIAL =   3  T = 298.1500  P = 1.500000E+06  V = 0.770179      Q =  49.3407    

      CONVERGENCE BLOCK $OLVER01  METHOD: WEGSTEIN                                TIME =      0.14
      ITER   2 For Tear Streams: RECYCLE

      --FLASH TEAR STREAM RECYCLE 
      KODE = 1  NTRIAL =  10  T = 323.1500  P = 1.500000E+06  V =  1.00000      Q =  0.00000    

  LOOP $OLVER01 ITER    2:   4 VARS NOT CONVERGED, MAX ERR/TOL     -332.24        TIME =      0.14

      UOS BLOCK M101     MODEL: MIXER                                             TIME =      0.14
      KODE = 1  NTRIAL =   7  T = 301.5531  P = 1.500000E+06  V = 0.830343      Q =  0.00000    

      UOS BLOCK R101     MODEL: RPLUG                                             TIME =      0.14
        AT REACTOR EXIT :
        LENGTH =   4.5000      DIAMETER =  0.97800E-01  RESIDENCE TIME =   1.2997    
        PROCESS STREAM T =    623.15     P =   0.15000E+07 H =  -0.13388E+08 V =    1.0000    

      CONVERGENCE BLOCK $OLVER02  METHOD: SECANT                                  TIME =      0.15
      ITER   0 For Specs:        DS-1
      ---FLASH STREAM COOL-IN :
      KODE = 2  NTRIAL =   1  T = 293.1500  P =  100000.      V =  0.00000      Q =  0.00000    

      UOS BLOCK H101     MODEL: HEATX                                             TIME =      0.15
      SPECIFICATION: HOT OUTLET TEMP       323.15    
      FLOW TYPE:     COUNTERCURRENT  
      HOT:  TIN=  623.15  PIN=0.15000E+07   TOUT=  323.15  POUT=0.15000E+07
      COLD: TIN=  293.15  PIN=0.10000E+06   TOUT=  372.73  POUT=0.10000E+06
                              DUTY=0.96516E+07

  *   WARNING WHILE EXECUTING UNIT OPERATIONS BLOCK: "H101" (MODEL: "HEATX")    
                                                               (CHKSTB.2)       
      STABILITY CHECK FOR LIQUID PHASE: STABILITY CRITERION NOT SATISFIED FOR   
      COMPONENT "WATER". STABILITY INDEX IS (1.1352), MOLE FRACTION IS (        
      0.6654 ). THIS PHASE MAY BE UNSTABLE. TRY USING 3-PHASE (OR FREE-WATER,   
      IF APPLICABLE) CALCULATIONS.                                              

      CONVERGENCE BLOCK $OLVER02  METHOD: SECANT                                  TIME =      0.16
      ITER   1 For Specs:        DS-1
      ---FLASH STREAM COOL-IN :
      KODE = 2  NTRIAL =   1  T = 293.1500  P =  100000.      V =  0.00000      Q =  0.00000    
      SPEC   1 ERROR = -0.42243     OLD X =  0.30886     NEW X =   3.3925    

  LOOP $OLVER02 ITER    1:   1 VARS NOT CONVERGED, MAX ERR/TOL     -4.2243        TIME =      0.16

      UOS BLOCK H101     MODEL: HEATX                                             TIME =      0.16
      SPECIFICATION: HOT OUTLET TEMP       323.15    
      FLOW TYPE:     COUNTERCURRENT  
      HOT:  TIN=  623.15  PIN=0.15000E+07   TOUT=  323.15  POUT=0.15000E+07
      COLD: TIN=  293.15  PIN=0.10000E+06   TOUT=  330.42  POUT=0.10000E+06
                              DUTY=0.96516E+07

  *   WARNING WHILE EXECUTING UNIT OPERATIONS BLOCK: "H101" (MODEL: "HEATX")    
                                                               (CHKSTB.2)       
      STABILITY CHECK FOR LIQUID PHASE: STABILITY CRITERION NOT SATISFIED FOR   
      COMPONENT "WATER". STABILITY INDEX IS (1.1352), MOLE FRACTION IS (        
      0.6654 ). THIS PHASE MAY BE UNSTABLE. TRY USING 3-PHASE (OR FREE-WATER,   
      IF APPLICABLE) CALCULATIONS.                                              

      CONVERGENCE BLOCK $OLVER02  METHOD: SECANT                                  TIME =      0.16
      ITER   2 For Specs:        DS-1
      ---FLASH STREAM COOL-IN :
      KODE = 2  NTRIAL =   1  T = 293.1500  P =  100000.      V =  0.00000      Q =  0.00000    
      SPEC   1 ERROR =  -42.732     OLD X =   3.3925     NEW X =  0.27807    

  LOOP $OLVER02 ITER    2:   1 VARS NOT CONVERGED, MAX ERR/TOL     -427.32        TIME =      0.17

      UOS BLOCK H101     MODEL: HEATX                                             TIME =      0.17
      SPECIFICATION: HOT OUTLET TEMP       323.15    
      FLOW TYPE:     COUNTERCURRENT  
      HOT:  TIN=  623.15  PIN=0.15000E+07   TOUT=  323.15  POUT=0.15000E+07
      COLD: TIN=  293.15  PIN=0.10000E+06   TOUT=  372.73  POUT=0.10000E+06
                              DUTY=0.96516E+07

  *   WARNING WHILE EXECUTING UNIT OPERATIONS BLOCK: "H101" (MODEL: "HEATX")    
                                                               (CHKSTB.2)       
      STABILITY CHECK FOR LIQUID PHASE: STABILITY CRITERION NOT SATISFIED FOR   
      COMPONENT "WATER". STABILITY INDEX IS (1.1352), MOLE FRACTION IS (        
      0.6654 ). THIS PHASE MAY BE UNSTABLE. TRY USING 3-PHASE (OR FREE-WATER,   
      IF APPLICABLE) CALCULATIONS.                                              

      CONVERGENCE BLOCK $OLVER02  METHOD: SECANT                                  TIME =      0.17
      ITER   3 For Specs:        DS-1
      A FLAT RESPONSE REGION DETECTED FOR SPEC FUNCTION = -0.422429    
      ---FLASH STREAM COOL-IN :
      KODE = 2  NTRIAL =   1  T = 293.1500  P =  100000.      V =  0.00000      Q =  0.00000    
      SPEC   1 ERROR = -0.42243     OLD X =  0.27807     NEW X =  0.24698    

  LOOP $OLVER02 ITER    3:   1 VARS NOT CONVERGED, MAX ERR/TOL     -4.2243        TIME =      0.17

      UOS BLOCK H101     MODEL: HEATX                                             TIME =      0.17
      SPECIFICATION: HOT OUTLET TEMP       323.15    
      FLOW TYPE:     COUNTERCURRENT  
      HOT:  TIN=  623.15  PIN=0.15000E+07   TOUT=  323.15  POUT=0.15000E+07
      COLD: TIN=  293.15  PIN=0.10000E+06   TOUT=  372.73  POUT=0.10000E+06
                              DUTY=0.96516E+07

  *   WARNING WHILE EXECUTING UNIT OPERATIONS BLOCK: "H101" (MODEL: "HEATX")    
                                                               (CHKSTB.2)       
      STABILITY CHECK FOR LIQUID PHASE: STABILITY CRITERION NOT SATISFIED FOR   
      COMPONENT "WATER". STABILITY INDEX IS (1.1352), MOLE FRACTION IS (        
      0.6654 ). THIS PHASE MAY BE UNSTABLE. TRY USING 3-PHASE (OR FREE-WATER,   
      IF APPLICABLE) CALCULATIONS.                                              

      CONVERGENCE BLOCK $OLVER02  METHOD: SECANT                                  TIME =      0.17
      ITER   4 For Specs:        DS-1

  *   WARNING WHILE EXECUTING CONVERGENCE BLOCK: "$OLVER02" (MODEL: "SECANT")   
                                                               (MODSEC.1)       
      SPEC FUNCTION NOT CHANGING, POSSIBLY HAS A FLAT  RESPONSE                 
      TO THE MANIPULATED PARAMETER WITHIN THE GIVEN BOUNDS.                     
      ---FLASH STREAM COOL-IN :
      KODE = 2  NTRIAL =   1  T = 293.1500  P =  100000.      V =  0.00000      Q =  0.00000    

                    DESIGN SP/
     VAR#  VAR NAME CALCULATOR VARIABLE DESCRIPTION                              NEW X            G(X)             X           ERR/TOL
     ----  -------- --------   ------------------------------               --------------- --------------- --------------- ---------------
        1  VARY     DS-1    (3) COOL-IN.MIXED.WATER.MASSFLOW                 0.24697847       0.0000000      0.24697847      -4.2242874      *   

  LOOP $OLVER02 ITER    4:   1 VARS NOT CONVERGED, MAX ERR/TOL     -4.2243        TIME =      0.18

      UOS BLOCK D101     MODEL: FLASH2                                            TIME =      0.18
      KODE = 2  NTRIAL =   1  T = 323.1500  P = 1.500000E+06  V = 0.399658      BETA = 0.484016      Q = -15477.4    

      UOS BLOCK S101     MODEL: FSPLIT                                            TIME =      0.18
      NO. TEMP ITER =    1     TEMP =  323.150    
      KODE = 1  NTRIAL =   1  T = 323.1500  P = 1.500000E+06  V =  1.00000      Q =  0.00000    
      SPLIT FRACTIONS:  0.80000D+00    0.20000D+00

      CALCULATOR BLOCK H2-FEED                                                    TIME =      0.19
      ---FLASH STREAM FEED    :
      KODE = 2  NTRIAL =   1  T = 298.1500  P = 1.500000E+06  V = 0.770180      Q = 2.245464E-03

      CONVERGENCE BLOCK $OLVER01  METHOD: WEGSTEIN                                TIME =      0.19
      ITER   3 For Tear Streams: RECYCLE

  LOOP $OLVER01 ITER    3:     *** CONVERGED *** , MAX ERR/TOL    -0.16898E-01    TIME =      0.19

      ENTHALPY CALCULATION FOR INLET STREAM SOLVENT OF BLOCK D102                 TIME =      0.19
      KODE = 2  NTRIAL =   1  T = 323.1500  P =  100000.      V =  0.00000      Q =  0.00000    

      UOS BLOCK D102     MODEL: EXTRACT                                           TIME =      0.19

      Convergence iterations:
         OL   IL     Err/Tol
          1    1      2698.0    
 
          2    1      3.4183    
 
          3    3      3.5081    
 
          4    2     0.26541    
 

      UOS BLOCK D103     MODEL: RADFRAC                                           TIME =      0.20

       Convergence iterations:
         OL   ML   IL     Err/Tol
          1    1    5      1511.4    
          2    1   10      426.44    
          3    1   10      287.73    
          4    1    3      1418.7    
          5    1   10      641.69    
          6    1   10      529.09    
          7    1    3      1249.8    
          8    1   10      1194.2    
          9    1    9      1244.1    
         10    1    4      365.80    
         11    1    2      67.565    
         12    1    2      23.987    
         13    1    2      6.8606    
         14    1    2      4.6136    
         15    1    2      1.0921    
         16    1    2     0.25360    

  **  ERROR WHILE IN SEQUENCE MONITOR                          (CHKCVG.1)       
      Convergence block $OLVER02 did not converge                               
      normally in the final pass                                                

      GENERATING RESULTS FOR UOS BLOCK H101     MODEL: HEATX                      TIME =      0.26
      SPECIFICATION: HOT OUTLET TEMP       323.15    
      FLOW TYPE:     COUNTERCURRENT  
      HOT:  TIN=  623.15  PIN=0.15000E+07   TOUT=  323.15  POUT=0.15000E+07
      COLD: TIN=  293.15  PIN=0.10000E+06   TOUT=  372.73  POUT=0.10000E+06
      AREA= 274.03           DUTY=0.96516E+07       FT=1.00000

  *   WARNING WHILE GENERATING RESULTS FOR UNIT OPERATIONS BLOCK: "H101"        
      (MODEL: "HEATX")                                         (CHKSTB.2)       
      STABILITY CHECK FOR LIQUID PHASE: STABILITY CRITERION NOT SATISFIED FOR   
      COMPONENT "WATER". STABILITY INDEX IS (1.1352), MOLE FRACTION IS (        
      0.6654 ). THIS PHASE MAY BE UNSTABLE. TRY USING 3-PHASE (OR FREE-WATER,   
      IF APPLICABLE) CALCULATIONS.                                              

  *   WARNING WHILE GENERATING RESULTS FOR UNIT OPERATIONS BLOCK: "H101"        
      (MODEL: "HEATX")                                         (CHKSTB.2)       
      STABILITY CHECK FOR LIQUID PHASE: STABILITY CRITERION NOT SATISFIED FOR   
      COMPONENT "WATER". STABILITY INDEX IS (1.1065), MOLE FRACTION IS (        
      0.6397 ). THIS PHASE MAY BE UNSTABLE. TRY USING 3-PHASE (OR FREE-WATER,   
      IF APPLICABLE) CALCULATIONS.                                              

      BEGIN HEATX TQ-CURVE CALCULATIONS FOR BLOCK H101    

      BEGIN COLD-TQCURVE INLET   
      KODE = 1  NTRIAL =   4  T = 372.7276  P =  100000.      V = 0.807549      Q =  0.00000    
      KODE = 1  NTRIAL =   1  T = 372.7276  P =  100000.      V = 0.762060      Q =  0.00000    
      KODE = 1  NTRIAL =   1  T = 372.7276  P =  100000.      V = 0.716571      Q =  0.00000    
      KODE = 1  NTRIAL =   1  T = 372.7276  P =  100000.      V = 0.671081      Q =  0.00000    
      KODE = 1  NTRIAL =   1  T = 372.7276  P =  100000.      V = 0.625592      Q =  0.00000    
      KODE = 1  NTRIAL =   1  T = 372.7276  P =  100000.      V = 0.580103      Q =  0.00000    
      KODE = 1  NTRIAL =   1  T = 372.7276  P =  100000.      V = 0.534614      Q =  0.00000    
      KODE = 1  NTRIAL =   1  T = 372.7276  P =  100000.      V = 0.489124      Q =  0.00000    
      KODE = 1  NTRIAL =   1  T = 372.7276  P =  100000.      V = 0.443635      Q =  0.00000    
      KODE = 1  NTRIAL =   1  T = 372.7276  P =  100000.      V = 0.398146      Q =  0.00000    
      KODE = 1  NTRIAL =   1  T = 372.7276  P =  100000.      V = 0.352657      Q =  0.00000    
      KODE = 1  NTRIAL =   1  T = 372.7276  P =  100000.      V = 0.307167      Q =  0.00000    
      KODE = 1  NTRIAL =   1  T = 372.7276  P =  100000.      V = 0.261678      Q =  0.00000    
      KODE = 1  NTRIAL =   1  T = 372.7276  P =  100000.      V = 0.216189      Q =  0.00000    
      KODE = 1  NTRIAL =   1  T = 372.7276  P =  100000.      V = 0.170700      Q =  0.00000    
      KODE = 1  NTRIAL =   1  T = 372.7276  P =  100000.      V = 0.125210      Q =  0.00000    
      KODE = 1  NTRIAL =   1  T = 372.7276  P =  100000.      V = 7.972104E-02  Q =  0.00000    
      KODE = 1  NTRIAL =   1  T = 372.7276  P =  100000.      V = 3.423178E-02  Q =  0.00000    
      NO. TEMP ITER =    5     TEMP =  366.635    
      KODE = 1  NTRIAL =   2  T = 366.6347  P =  100000.      V =  0.00000      Q =  0.00000    
      KODE = 3  NTRIAL =   3  T = 372.7276  P =  100000.      V =  0.00000      Q =-8.159069E+06
      NO. TEMP ITER =    5     TEMP =  366.635    
      KODE = 1  NTRIAL =   2  T = 366.6347  P =  100000.      V =  0.00000      Q =  0.00000    
      NO. TEMP ITER =    4     TEMP =  342.002    
      KODE = 1  NTRIAL =   2  T = 342.0015  P =  100000.      V =  0.00000      Q =  0.00000    
      NO. TEMP ITER =    5     TEMP =  317.461    
      KODE = 1  NTRIAL =   2  T = 317.4613  P =  100000.      V =  0.00000      Q =  0.00000    
      NO. TEMP ITER =    5     TEMP =  293.150    
      KODE = 1  NTRIAL =   2  T = 293.1500  P =  100000.      V =  0.00000      Q =  0.00000    

      BEGIN HOT-TQCURVE  INLET   
      NO. TEMP ITER =    6     TEMP =  623.150    
      KODE = 1  NTRIAL =   6  T = 623.1500  P = 1.500000E+06  V =  1.00000      Q =  0.00000    
      NO. TEMP ITER =    5     TEMP =  591.259    
      KODE = 1  NTRIAL =   6  T = 591.2586  P = 1.500000E+06  V =  1.00000      Q =  0.00000    
      NO. TEMP ITER =    5     TEMP =  558.804    
      KODE = 1  NTRIAL =   6  T = 558.8038  P = 1.500000E+06  V =  1.00000      Q =  0.00000    
      NO. TEMP ITER =    5     TEMP =  525.734    
      KODE = 1  NTRIAL =   5  T = 525.7342  P = 1.500000E+06  V =  1.00000      Q =  0.00000    
      KODE = 1  NTRIAL =  11  T = 498.6844  P = 1.500000E+06  V = 0.989294      Q =  0.00000    
      KODE = 3  NTRIAL =  10  T = 500.4833  P = 1.500000E+06  V =  1.00000      Q =-1.723651E+06
      KODE = 1  NTRIAL =  10  T = 498.6844  P = 1.500000E+06  V = 0.989294      Q =  0.00000    
      KODE = 1  NTRIAL =   6  T = 490.9047  P = 1.500000E+06  V = 0.947745      Q =  0.00000    
      KODE = 1  NTRIAL =   6  T = 482.1552  P = 1.500000E+06  V = 0.908353      Q =  0.00000    
      KODE = 1  NTRIAL =   7  T = 472.4622  P = 1.500000E+06  V = 0.870923      Q =  0.00000    
      KODE = 1  NTRIAL =   8  T = 462.0960  P = 1.500000E+06  V = 0.834723      Q =  0.00000    
      KODE = 1  NTRIAL =   8  T = 451.7568  P = 1.500000E+06  V = 0.798160      Q =  0.00000    
      KODE = 1  NTRIAL =   7  T = 442.4788  P = 1.500000E+06  V = 0.759100      Q =  0.00000    
      KODE = 1  NTRIAL =   7  T = 434.8827  P = 1.500000E+06  V = 0.716472      Q =  0.00000    
      KODE = 1  NTRIAL =   7  T = 428.6196  P = 1.500000E+06  V = 0.671322      Q =  0.00000    
      KODE = 1  NTRIAL =   7  T = 422.8538  P = 1.500000E+06  V = 0.625669      Q =  0.00000    

  *   WARNING WHILE GENERATING RESULTS FOR UNIT OPERATIONS BLOCK: "H101"        
      (MODEL: "HEATX")    (WHILE GENERATING HOT-TQCURVE )      (TGSUPP.2)       
      STABILITY CHECK FOR LIQUID PHASE: STABILITY CRITERION NOT SATISFIED FOR   
      COMPONENT "WATER". STABILITY INDEX IS (1.0443), MOLE FRACTION IS (        
      0.4968 ). THIS PHASE MAY BE UNSTABLE. TRY USING 3-PHASE (OR FREE-WATER,   
      IF APPLICABLE) CALCULATIONS. CALCULATED PROPERTIES MAY BE UNRELIABLE DUE  
      TO FLASH PROBLEMS.                                                        
      KODE = 1  NTRIAL =   7  T = 416.8241  P = 1.500000E+06  V = 0.581306      Q =  0.00000    

  *   WARNING WHILE GENERATING RESULTS FOR UNIT OPERATIONS BLOCK: "H101"        
      (MODEL: "HEATX")    (WHILE GENERATING HOT-TQCURVE )      (TGSUPP.2)       
      STABILITY CHECK FOR LIQUID PHASE: STABILITY CRITERION NOT SATISFIED FOR   
      COMPONENT "WATER". STABILITY INDEX IS (1.0692), MOLE FRACTION IS (        
      0.5425 ). THIS PHASE MAY BE UNSTABLE. TRY USING 3-PHASE (OR FREE-WATER,   
      IF APPLICABLE) CALCULATIONS. CALCULATED PROPERTIES MAY BE UNRELIABLE DUE  
      TO FLASH PROBLEMS.                                                        
      KODE = 1  NTRIAL =   7  T = 409.9397  P = 1.500000E+06  V = 0.539604      Q =  0.00000    

  *   WARNING WHILE GENERATING RESULTS FOR UNIT OPERATIONS BLOCK: "H101"        
      (MODEL: "HEATX")    (WHILE GENERATING HOT-TQCURVE )      (TGSUPP.2)       
      STABILITY CHECK FOR LIQUID PHASE: STABILITY CRITERION NOT SATISFIED FOR   
      COMPONENT "WATER". STABILITY INDEX IS (1.0838), MOLE FRACTION IS (        
      0.5783 ). THIS PHASE MAY BE UNSTABLE. TRY USING 3-PHASE (OR FREE-WATER,   
      IF APPLICABLE) CALCULATIONS. CALCULATED PROPERTIES MAY BE UNRELIABLE DUE  
      TO FLASH PROBLEMS.                                                        
      KODE = 1  NTRIAL =   8  T = 401.6942  P = 1.500000E+06  V = 0.501699      Q =  0.00000    

  *   WARNING WHILE GENERATING RESULTS FOR UNIT OPERATIONS BLOCK: "H101"        
      (MODEL: "HEATX")    (WHILE GENERATING HOT-TQCURVE )      (TGSUPP.2)       
      STABILITY CHECK FOR LIQUID PHASE: STABILITY CRITERION NOT SATISFIED FOR   
      COMPONENT "WATER". STABILITY INDEX IS (1.0933), MOLE FRACTION IS (        
      0.6061 ). THIS PHASE MAY BE UNSTABLE. TRY USING 3-PHASE (OR FREE-WATER,   
      IF APPLICABLE) CALCULATIONS. CALCULATED PROPERTIES MAY BE UNRELIABLE DUE  
      TO FLASH PROBLEMS.                                                        
      KODE = 1  NTRIAL =   7  T = 391.5874  P = 1.500000E+06  V = 0.468649      Q =  0.00000    

  *   WARNING WHILE GENERATING RESULTS FOR UNIT OPERATIONS BLOCK: "H101"        
      (MODEL: "HEATX")    (WHILE GENERATING HOT-TQCURVE )      (TGSUPP.2)       
      STABILITY CHECK FOR LIQUID PHASE: STABILITY CRITERION NOT SATISFIED FOR   
      COMPONENT "WATER". STABILITY INDEX IS (1.1009), MOLE FRACTION IS (        
      0.6273 ). THIS PHASE MAY BE UNSTABLE. TRY USING 3-PHASE (OR FREE-WATER,   
      IF APPLICABLE) CALCULATIONS. CALCULATED PROPERTIES MAY BE UNRELIABLE DUE  
      TO FLASH PROBLEMS.                                                        
      KODE = 1  NTRIAL =   7  T = 382.4369  P = 1.500000E+06  V = 0.447587      Q =  0.00000    

  *   WARNING WHILE GENERATING RESULTS FOR UNIT OPERATIONS BLOCK: "H101"        
      (MODEL: "HEATX")    (WHILE GENERATING HOT-TQCURVE )      (TGSUPP.2)       
      STABILITY CHECK FOR LIQUID PHASE: STABILITY CRITERION NOT SATISFIED FOR   
      COMPONENT "WATER". STABILITY INDEX IS (1.1065), MOLE FRACTION IS (        
      0.6397 ). THIS PHASE MAY BE UNSTABLE. TRY USING 3-PHASE (OR FREE-WATER,   
      IF APPLICABLE) CALCULATIONS. CALCULATED PROPERTIES MAY BE UNRELIABLE DUE  
      TO FLASH PROBLEMS.                                                        
      KODE = 1  NTRIAL =   6  T = 379.0937  P = 1.500000E+06  V = 0.441450      Q =  0.00000    

  *   WARNING WHILE GENERATING RESULTS FOR UNIT OPERATIONS BLOCK: "H101"        
      (MODEL: "HEATX")    (WHILE GENERATING HOT-TQCURVE )      (TGSUPP.2)       
      STABILITY CHECK FOR LIQUID PHASE: STABILITY CRITERION NOT SATISFIED FOR   
      COMPONENT "WATER". STABILITY INDEX IS (1.1084), MOLE FRACTION IS (        
      0.6432 ). THIS PHASE MAY BE UNSTABLE. TRY USING 3-PHASE (OR FREE-WATER,   
      IF APPLICABLE) CALCULATIONS. CALCULATED PROPERTIES MAY BE UNRELIABLE DUE  
      TO FLASH PROBLEMS.                                                        
      KODE = 1  NTRIAL =   7  T = 363.6968  P = 1.500000E+06  V = 0.420914      Q =  0.00000    

  *   WARNING WHILE GENERATING RESULTS FOR UNIT OPERATIONS BLOCK: "H101"        
      (MODEL: "HEATX")    (WHILE GENERATING HOT-TQCURVE )      (TGSUPP.2)       
      STABILITY CHECK FOR LIQUID PHASE: STABILITY CRITERION NOT SATISFIED FOR   
      COMPONENT "WATER". STABILITY INDEX IS (1.1167), MOLE FRACTION IS (        
      0.6543 ). THIS PHASE MAY BE UNSTABLE. TRY USING 3-PHASE (OR FREE-WATER,   
      IF APPLICABLE) CALCULATIONS. CALCULATED PROPERTIES MAY BE UNRELIABLE DUE  
      TO FLASH PROBLEMS.                                                        
      KODE = 1  NTRIAL =   8  T = 345.0312  P = 1.500000E+06  V = 0.407329      Q =  0.00000    

  *   WARNING WHILE GENERATING RESULTS FOR UNIT OPERATIONS BLOCK: "H101"        
      (MODEL: "HEATX")    (WHILE GENERATING HOT-TQCURVE )      (TGSUPP.2)       
      STABILITY CHECK FOR LIQUID PHASE: STABILITY CRITERION NOT SATISFIED FOR   
      COMPONENT "WATER". STABILITY INDEX IS (1.1260), MOLE FRACTION IS (        
      0.6615 ). THIS PHASE MAY BE UNSTABLE. TRY USING 3-PHASE (OR FREE-WATER,   
      IF APPLICABLE) CALCULATIONS. CALCULATED PROPERTIES MAY BE UNRELIABLE DUE  
      TO FLASH PROBLEMS.                                                        
      KODE = 1  NTRIAL =   8  T = 323.1500  P = 1.500000E+06  V = 0.399979      Q =  0.00000    

  *   WARNING WHILE GENERATING RESULTS FOR UNIT OPERATIONS BLOCK: "H101"        
      (MODEL: "HEATX")    (WHILE GENERATING HOT-TQCURVE )      (TGSUPP.2)       
      STABILITY CHECK FOR LIQUID PHASE: STABILITY CRITERION NOT SATISFIED FOR   
      COMPONENT "WATER". STABILITY INDEX IS (1.1352), MOLE FRACTION IS (        
      0.6654 ). THIS PHASE MAY BE UNSTABLE. TRY USING 3-PHASE (OR FREE-WATER,   
      IF APPLICABLE) CALCULATIONS. CALCULATED PROPERTIES MAY BE UNRELIABLE DUE  
      TO FLASH PROBLEMS.                                                        

      BEGIN COLD-TQCURVE INLET   
      KODE = 1  NTRIAL =   4  T = 372.7276  P =  100000.      V = 0.636950      Q =  0.00000    

      BEGIN HOT-TQCURVE  INLET   
      END HEATX TQ-CURVE CALCULATIONS FOR BLOCK H101    

      CHECKING PHASE EQUILIBRIUM RESULTS                                          TIME =      0.29

      CHECKING PHASE EQUILIBRIUM RESULTS                                          TIME =      0.29

      BEGIN HEATX TQ-CURVE REPORT FOR BLOCK H101    

      BEGIN COLD-TQCURVE INLET   

      BEGIN HOT-TQCURVE  INLET   
      END HEATX TQ-CURVE REPORT FOR BLOCK H101    
<reset scope>
<reset scope>
<reset scope>
<reset scope>
<reset scope>


*** INPUT SPECIFICATION MESSAGES ***

 THE FOLLOWING PARAGRAPH(S) WERE DELETED:

 DELETE
   BLOCK        "H101    "
   DESIGN-SPEC  "DS-1    "

 CHANGES WERE MADE TO FLOWSHEET    04/08/2026   19:06:31:99 
 FLOWSHEET
     BLOCK R101 IN=FEED-MIX OUT=PROD
     BLOCK D101 IN=COOL-PR OUT=VAPOUR LIQUID
     BLOCK M101 IN=FEED RECYCLE OUT=FEED-MIX
     BLOCK S101 IN=VAPOUR OUT=RECYCLE PURGE
     BLOCK D102 IN=LIQUID SOLVENT OUT=EXTRCT RFFNT
     BLOCK D103 IN=EXTRCT OUT=DSTL BTTM
     BLOCK B1 IN=PROD OUT=COOL-PR

 BLOCK        B1       IS NEW 04/08/2026   19:06:31:99 
 BLOCK B1 HEATER
     PARAM TEMP=50. PRES=0. DPPARMOPT=NO
     UTILITY UTILITY-ID=U-1

 UTILITY      U-1      IS NEW 04/08/2026   19:06:31:99 
 UTILITY U-1 GENERAL
     DESCRIPTION 'Cooling Water, Inlet Temp=20 C, Outlet Temp=25 C'
     COST ENERGY-PRICE=2.12E-07 <$/kJ>
     PARAM UTILITY-TYPE=WATER PRES=1. <atm> PRES-OUT=1. <atm>  &
         TIN=20. TOUT=50. CALOPT=FLASH MIN-TAPP=5. CALCCO2=NO  &
         HTC=0.0135 <GJ/hr-sqm-C>

 DISABLE      IS  NEW 04/08/2026   19:06:31:99 
 DISABLE
     SENSITIVITY D101-T DSTL-RTO HPT-RATE LLE-DSTL RSIZE-1  &
         S101-SF
     CONSTRAINT AN-EXT-R
     OPTIMIZATION HPT-RATE

 PDF updated                                                                      TIME =    113.62
 THIS COPY OF ASPEN PLUS LICENSED TO UNIVERSITY OF BRITISH CO        



      CHECKING PHASE EQUILIBRIUM RESULTS                                          TIME =    113.87
 *** FLOWSHEET ANALYSIS MESSAGES ***

 FLOWSHEET CONNECTIVITY BY STREAMS       

   STREAM     SOURCE     DEST           STREAM     SOURCE     DEST
   FEED       ----       M101           SOLVENT    ----       D102    
   PROD       R101       B1             VAPOUR     D101       S101    
   LIQUID     D101       D102           FEED-MIX   M101       R101    
   RECYCLE    S101       M101           PURGE      S101       ----    
   EXTRCT     D102       D103           RFFNT      D102       ----    
   DSTL       D103       ----           BTTM       D103       ----    
   COOL-PR    B1         D101                                         

 FLOWSHEET CONNECTIVITY BY BLOCKS        

   BLOCK        INLETS                         OUTLETS
   R101         FEED-MIX                       PROD                        
   D101         COOL-PR                        VAPOUR LIQUID               
   M101         FEED RECYCLE                   FEED-MIX                    
   S101         VAPOUR                         RECYCLE PURGE               
   D102         LIQUID SOLVENT                 EXTRCT RFFNT                
   D103         EXTRCT                         DSTL BTTM                   
   B1           PROD                           COOL-PR                     

      BLOCK $OLVER01 (METHOD: WEGSTEIN) HAS BEEN DEFINED TO CONVERGE
               STREAMS: RECYCLE

  *   WARNING DURING FLOWSHEET ANALYSIS                        (AF2MER.2)       
      BECAUSE TEAR-VAR=NO IN CONV-OPTIONS, AN INFORMATION TEAR:                 
         STREAM $WRV9     FROM H2-FEED      TO FST$FEED                         
      WILL NOT BE CONVERGED BY A CONVERGENCE BLOCK. THIS MAY CAUSE              
      CONVERGENCE PROBLEMS OR MISLEADING RESULTS. IF THIS STREAM IS             
      A TEAR, SET TEAR-VAR=YES IN CONV-OPTIONS TO CAUSE IT TO BE                
      CONVERGED. OTHERWISE, PLEASE CHECK THE LOCATION OF FORTRAN                
      BLOCK H2-FEED      IN THE SEQUENCE AND CONSIDER MOVING                    
      IT BY USING THE 'EXECUTE' KEYWORD OR OTHER METHODS.                       

      COMPUTATION ORDER FOR THE FLOWSHEET IS:
      U-1 
      $OLVER01 M101 R101 B1 D101 S101 H2-FEED 
      (RETURN $OLVER01) 
      D102 D103 


Calculations begin                                                              time    113.88


      UTILITY BLOCK U-1      MODEL: GENERAL                                       TIME =    113.88
      KODE = 2  NTRIAL =   1  T = 293.1500  P =  101325.      V =  0.00000      Q =  0.00000    
      KODE = 3  NTRIAL =   6  T = 373.1406  P =  101325.      V =  0.00000      Q = 6.026909E+06
      KODE = 2  NTRIAL =   1  T = 323.1500  P =  101325.      V =  0.00000      Q =  0.00000    
      KODE = 3  NTRIAL =   6  T = 373.1406  P =  101325.      V =  0.00000      Q = 3.771463E+06
      HEATING/COOLING VALUE    -1.251963D+05 J/KG

      CONVERGENCE BLOCK $OLVER01  METHOD: WEGSTEIN                                TIME =    113.89
      ITER   0 For Tear Streams: RECYCLE

      UOS BLOCK B1       MODEL: HEATER                                            TIME =    113.89
      KODE = 2  NTRIAL =   5  T = 323.1500  P = 1.500000E+06  V = 0.399979      Q =-9.651611E+06

  *   WARNING WHILE EXECUTING UNIT OPERATIONS BLOCK: "B1" (MODEL: "HEATER")     
                                                               (UHE01.4)        
      STABILITY CHECK FOR LIQUID PHASE: STABILITY CRITERION NOT SATISFIED FOR   
      COMPONENT "WATER". STABILITY INDEX IS (1.1352), MOLE FRACTION IS (        
      0.6654 ). THIS PHASE MAY BE UNSTABLE. TRY USING 3-PHASE (OR FREE-WATER,   
      IF APPLICABLE) CALCULATIONS. PROBLEM OCCURRED WHILE FLASHING OUTLET       
      STREAM.                                                                   

      UOS BLOCK D101     MODEL: FLASH2                                            TIME =    113.89
      KODE = 2  NTRIAL =   1  T = 323.1500  P = 1.500000E+06  V = 0.399658      BETA = 0.484016      Q = -15477.4    

      UOS BLOCK S101     MODEL: FSPLIT                                            TIME =    113.89
      NO. TEMP ITER =    1     TEMP =  323.150    
      KODE = 1  NTRIAL =   1  T = 323.1500  P = 1.500000E+06  V =  1.00000      Q =  0.00000    
      SPLIT FRACTIONS:  0.80000D+00    0.20000D+00

      CALCULATOR BLOCK H2-FEED                                                    TIME =    113.89
      ---FLASH STREAM FEED    :
      KODE = 2  NTRIAL =   1  T = 298.1500  P = 1.500000E+06  V = 0.770180      Q = 2.571248E-06

      CONVERGENCE BLOCK $OLVER01  METHOD: WEGSTEIN                                TIME =    113.90
      ITER   1 For Tear Streams: RECYCLE

  LOOP $OLVER01 ITER    1:     *** CONVERGED *** , MAX ERR/TOL    -0.16898E-01    TIME =    113.90

      UOS BLOCK D102     MODEL: EXTRACT                                           TIME =    113.90

      Convergence iterations:
         OL   IL     Err/Tol
          1    1     0.87307E-01
 

      UOS BLOCK D103     MODEL: RADFRAC                                           TIME =    113.90

       Convergence iterations:
         OL   ML   IL     Err/Tol
          1    1    2     0.41985    

      GENERATING RESULTS FOR UOS BLOCK B1       MODEL: HEATER                     TIME =    113.92

      CHECKING PHASE EQUILIBRIUM RESULTS                                          TIME =    113.92

      CHECKING PHASE EQUILIBRIUM RESULTS                                          TIME =    113.92


*** INPUT SPECIFICATION MESSAGES ***

 CHANGES WERE MADE TO BLOCK        B1       04/08/2026   19:07:27:09 
 BLOCK B1 HEATER
     PARAM TEMP=50. PRES=0. NPHASE=3 DPPARMOPT=NO
     BLOCK-OPTION FREE-WATER=NO
     UTILITY UTILITY-ID=U-1

 DISABLE      IS  NEW 04/08/2026   19:07:27:09 
 DISABLE
     SENSITIVITY D101-T DSTL-RTO HPT-RATE LLE-DSTL RSIZE-1  &
         S101-SF
     CONSTRAINT AN-EXT-R
     OPTIMIZATION HPT-RATE

 PDF updated                                                                      TIME =    168.39
 THIS COPY OF ASPEN PLUS LICENSED TO UNIVERSITY OF BRITISH CO        

      CHECKING PHASE EQUILIBRIUM RESULTS                                          TIME =    168.68


Calculations begin                                                              time    168.69


      UOS BLOCK B1       MODEL: HEATER                                            TIME =    168.69
      KODE = 2  NTRIAL =  10  T = 323.1500  P = 1.500000E+06  V = 0.399658      BETA = 0.515984      Q =-9.667088E+06

      UOS BLOCK D101     MODEL: FLASH2                                            TIME =    168.69
      KODE = 2  NTRIAL =   1  T = 323.1500  P = 1.500000E+06  V = 0.399658      BETA = 0.484016      Q = 3.058849E-02

      UOS BLOCK S101     MODEL: FSPLIT                                            TIME =    168.70
      NO. TEMP ITER =    1     TEMP =  323.150    
      KODE = 1  NTRIAL =   1  T = 323.1500  P = 1.500000E+06  V =  1.00000      Q =  0.00000    
      SPLIT FRACTIONS:  0.80000D+00    0.20000D+00

      CALCULATOR BLOCK H2-FEED                                                    TIME =    168.70
      ---FLASH STREAM FEED    :
      KODE = 2  NTRIAL =   1  T = 298.1500  P = 1.500000E+06  V = 0.770180      Q = 1.081040E-07

      CONVERGENCE BLOCK $OLVER01  METHOD: WEGSTEIN                                TIME =    168.70
      ITER   0 For Tear Streams: RECYCLE

      UOS BLOCK M101     MODEL: MIXER                                             TIME =    168.70
      KODE = 1  NTRIAL =   2  T = 301.5531  P = 1.500000E+06  V = 0.830343      Q =  0.00000    

      UOS BLOCK R101     MODEL: RPLUG                                             TIME =    168.70
        AT REACTOR EXIT :
        LENGTH =   4.5000      DIAMETER =  0.97800E-01  RESIDENCE TIME =   1.2997    
        PROCESS STREAM T =    623.15     P =   0.15000E+07 H =  -0.13388E+08 V =    1.0000    

      UOS BLOCK B1       MODEL: HEATER                                            TIME =    168.71
      KODE = 2  NTRIAL =  10  T = 323.1500  P = 1.500000E+06  V = 0.399658      BETA = 0.515984      Q =-9.667088E+06

      UOS BLOCK D101     MODEL: FLASH2                                            TIME =    168.71
      KODE = 2  NTRIAL =   1  T = 323.1500  P = 1.500000E+06  V = 0.399658      BETA = 0.484016      Q =-4.224888E-02

      UOS BLOCK S101     MODEL: FSPLIT                                            TIME =    168.71
      NO. TEMP ITER =    1     TEMP =  323.150    
      KODE = 1  NTRIAL =   1  T = 323.1500  P = 1.500000E+06  V =  1.00000      Q =  0.00000    
      SPLIT FRACTIONS:  0.80000D+00    0.20000D+00

      CALCULATOR BLOCK H2-FEED                                                    TIME =    168.71
      ---FLASH STREAM FEED    :
      KODE = 2  NTRIAL =   1  T = 298.1500  P = 1.500000E+06  V = 0.770180      Q = 6.952070E-06

      CONVERGENCE BLOCK $OLVER01  METHOD: WEGSTEIN                                TIME =    168.72
      ITER   1 For Tear Streams: RECYCLE

  LOOP $OLVER01 ITER    1:     *** CONVERGED *** , MAX ERR/TOL    -0.13006E-03    TIME =    168.72

      UOS BLOCK D102     MODEL: EXTRACT                                           TIME =    168.72

      Convergence iterations:
         OL   IL     Err/Tol
          1    1     0.44002E-02
 

      UOS BLOCK D103     MODEL: RADFRAC                                           TIME =    168.72

       Convergence iterations:
         OL   ML   IL     Err/Tol
          1    1    1     0.49140E-01

      GENERATING RESULTS FOR UOS BLOCK B1       MODEL: HEATER                     TIME =    168.73

      CHECKING PHASE EQUILIBRIUM RESULTS                                          TIME =    168.73

      CHECKING PHASE EQUILIBRIUM RESULTS                                          TIME =    168.73


*** INPUT SPECIFICATION MESSAGES ***

 BLOCK        B1       IS GENERATED BECAUSE OF OTHER CHANGES 04/08/2026   19:13:09:99 
 BLOCK B1 HEATER
     PARAM TEMP=50. PRES=0. NPHASE=3 DPPARMOPT=NO
     BLOCK-OPTION FREE-WATER=NO
     UTILITY UTILITY-ID=U-1

 CHANGES WERE MADE TO UTILITY      U-1      04/08/2026   19:13:09:99 
 UTILITY U-1 GENERAL
     DESCRIPTION 'Cooling Water, Inlet Temp=20 C, Outlet Temp=25 C'
     COST ENERGY-PRICE=2.12E-07 <$/kJ>
     PARAM UTILITY-TYPE=WATER PRES=1. <atm> PRES-OUT=1. <atm>  &
         TIN=20. TOUT=95. CALOPT=FLASH MIN-TAPP=5. CALCCO2=NO  &
         HTC=0.0135 <GJ/hr-sqm-C>

 DISABLE      IS  NEW 04/08/2026   19:13:09:99 
 DISABLE
     SENSITIVITY D101-T DSTL-RTO HPT-RATE LLE-DSTL RSIZE-1  &
         S101-SF
     CONSTRAINT AN-EXT-R
     OPTIMIZATION HPT-RATE

 PDF updated                                                                      TIME =    511.03
 THIS COPY OF ASPEN PLUS LICENSED TO UNIVERSITY OF BRITISH CO        



      CHECKING PHASE EQUILIBRIUM RESULTS                                          TIME =    511.37
 *** FLOWSHEET ANALYSIS MESSAGES ***

 FLOWSHEET CONNECTIVITY BY STREAMS       

   STREAM     SOURCE     DEST           STREAM     SOURCE     DEST
   FEED       ----       M101           SOLVENT    ----       D102    
   PROD       R101       B1             VAPOUR     D101       S101    
   LIQUID     D101       D102           FEED-MIX   M101       R101    
   RECYCLE    S101       M101           PURGE      S101       ----    
   EXTRCT     D102       D103           RFFNT      D102       ----    
   DSTL       D103       ----           BTTM       D103       ----    
   COOL-PR    B1         D101                                         

 FLOWSHEET CONNECTIVITY BY BLOCKS        

   BLOCK        INLETS                         OUTLETS
   R101         FEED-MIX                       PROD                        
   D101         COOL-PR                        VAPOUR LIQUID               
   M101         FEED RECYCLE                   FEED-MIX                    
   S101         VAPOUR                         RECYCLE PURGE               
   D102         LIQUID SOLVENT                 EXTRCT RFFNT                
   D103         EXTRCT                         DSTL BTTM                   
   B1           PROD                           COOL-PR                     

      BLOCK $OLVER01 (METHOD: WEGSTEIN) HAS BEEN DEFINED TO CONVERGE
               STREAMS: RECYCLE

  *   WARNING DURING FLOWSHEET ANALYSIS                        (AF2MER.2)       
      BECAUSE TEAR-VAR=NO IN CONV-OPTIONS, AN INFORMATION TEAR:                 
         STREAM $WRV9     FROM H2-FEED      TO FST$FEED                         
      WILL NOT BE CONVERGED BY A CONVERGENCE BLOCK. THIS MAY CAUSE              
      CONVERGENCE PROBLEMS OR MISLEADING RESULTS. IF THIS STREAM IS             
      A TEAR, SET TEAR-VAR=YES IN CONV-OPTIONS TO CAUSE IT TO BE                
      CONVERGED. OTHERWISE, PLEASE CHECK THE LOCATION OF FORTRAN                
      BLOCK H2-FEED      IN THE SEQUENCE AND CONSIDER MOVING                    
      IT BY USING THE 'EXECUTE' KEYWORD OR OTHER METHODS.                       

      COMPUTATION ORDER FOR THE FLOWSHEET IS:
      U-1 
      $OLVER01 M101 R101 B1 D101 S101 H2-FEED 
      (RETURN $OLVER01) 
      D102 D103 


Calculations begin                                                              time    511.38


      UTILITY BLOCK U-1      MODEL: GENERAL                                       TIME =    511.38
      KODE = 2  NTRIAL =   1  T = 293.1500  P =  101325.      V =  0.00000      Q =  0.00000    
      KODE = 3  NTRIAL =   6  T = 373.1406  P =  101325.      V =  0.00000      Q = 6.026909E+06
      KODE = 2  NTRIAL =   1  T = 368.1500  P =  101325.      V =  0.00000      Q =  0.00000    
      KODE = 3  NTRIAL =   6  T = 373.1406  P =  101325.      V =  0.00000      Q =  378150.    
      HEATING/COOLING VALUE    -3.135538D+05 J/KG

      CONVERGENCE BLOCK $OLVER01  METHOD: WEGSTEIN                                TIME =    511.38
      ITER   0 For Tear Streams: RECYCLE

      UOS BLOCK B1       MODEL: HEATER                                            TIME =    511.38
      KODE = 2  NTRIAL =  10  T = 323.1500  P = 1.500000E+06  V = 0.399658      BETA = 0.515984      Q =-9.667088E+06

      UOS BLOCK D101     MODEL: FLASH2                                            TIME =    511.38
      KODE = 2  NTRIAL =   1  T = 323.1500  P = 1.500000E+06  V = 0.399658      BETA = 0.484016      Q =-4.224888E-02

      UOS BLOCK S101     MODEL: FSPLIT                                            TIME =    511.38
      NO. TEMP ITER =    1     TEMP =  323.150    
      KODE = 1  NTRIAL =   1  T = 323.1500  P = 1.500000E+06  V =  1.00000      Q =  0.00000    
      SPLIT FRACTIONS:  0.80000D+00    0.20000D+00

      CALCULATOR BLOCK H2-FEED                                                    TIME =    511.39
      ---FLASH STREAM FEED    :
      KODE = 2  NTRIAL =   1  T = 298.1500  P = 1.500000E+06  V = 0.770180      Q = 7.919222E-09

      CONVERGENCE BLOCK $OLVER01  METHOD: WEGSTEIN                                TIME =    511.39
      ITER   1 For Tear Streams: RECYCLE

  LOOP $OLVER01 ITER    1:     *** CONVERGED *** , MAX ERR/TOL    -0.13006E-03    TIME =    511.39

      UOS BLOCK D102     MODEL: EXTRACT                                           TIME =    511.39

      Convergence iterations:
         OL   IL     Err/Tol
          1    1     0.46700E-03
 

      UOS BLOCK D103     MODEL: RADFRAC                                           TIME =    511.39

       Convergence iterations:
         OL   ML   IL     Err/Tol
          1    1    1     0.89927E-02

      GENERATING RESULTS FOR UOS BLOCK B1       MODEL: HEATER                     TIME =    511.41

      CHECKING PHASE EQUILIBRIUM RESULTS                                          TIME =    511.41

      CHECKING PHASE EQUILIBRIUM RESULTS                                          TIME =    511.41
<reset scope>
<reset scope>
<reset scope>
<reset scope>
<reset scope>
<reset scope>
<reset scope>
<reset scope>
<reset scope>
<reset scope>
<reset scope>
<reset scope>
<reset scope>
<reset scope>
<reset scope>


*** INPUT SPECIFICATION MESSAGES ***

 THE FOLLOWING PARAGRAPH(S) WERE DELETED:

 DELETE
   BLOCK        "B1      "

 CHANGES WERE MADE TO FLOWSHEET    04/08/2026   19:18:24:99 
 FLOWSHEET
     BLOCK R101 IN=FEED-MIX OUT=PROD
     BLOCK D101 IN=COOL-PR OUT=VAPOUR LIQUID
     BLOCK M101 IN=FEED RECYCLE OUT=FEED-MIX
     BLOCK S101 IN=VAPOUR OUT=RECYCLE PURGE
     BLOCK D102 IN=LIQUID SOLVENT OUT=EXTRCT RFFNT
     BLOCK D103 IN=EXTRCT OUT=DSTL BTTM
     BLOCK H101 IN=PROD COOL-IN OUT=COOL-PR COOL-OUT

 CHANGES WERE MADE TO STREAM       COOL-IN  04/08/2026   19:18:24:99 
 STREAM COOL-IN
     SUBSTREAM MIXED TEMP=20. PRES=1. <atm>  &
         MASS-FLOW=111. <tonne/hr>
     MASS-FRAC WATER 1.

 BLOCK        H101     IS NEW 04/08/2026   19:18:24:99 
 BLOCK H101 HEATX
     PARAM T-HOT=50.
     FEEDS HOT=PROD COLD=COOL-IN
     OUTLETS-HOT COOL-PR
     OUTLETS-COLD COOL-OUT
     HOT-SIDE DPPARMOPT=NO
     COLD-SIDE DPPARMOPT=NO
     TQ-PARAM CURVE=YES

 DISABLE      IS  NEW 04/08/2026   19:18:24:99 
 DISABLE
     SENSITIVITY D101-T DSTL-RTO HPT-RATE LLE-DSTL RSIZE-1  &
         S101-SF
[...]
      KODE = 3  NTRIAL =   2  T = 371.8387  P =  100000.      V =  0.00000      BETA = 0.175161      Q =  0.00000    
      KODE = 3  NTRIAL =   2  T = 371.8387  P =  100000.      V =  0.00000      BETA = 0.142595      Q =  0.00000    
      KODE = 3  NTRIAL =   2  T = 371.8387  P =  100000.      V =  0.00000      BETA = 0.110030      Q =  0.00000    
      KODE = 3  NTRIAL =   2  T = 371.8387  P =  100000.      V =  0.00000      BETA = 7.746390E-02  Q =  0.00000    
      KODE = 3  NTRIAL =   2  T = 371.8387  P =  100000.      V =  0.00000      BETA = 4.489827E-02  Q =  0.00000    
      KODE = 3  NTRIAL =   2  T = 371.8387  P =  100000.      V =  0.00000      BETA = 1.233264E-02  Q =  0.00000    
      KODE = 3  NTRIAL =   2  T = 372.7276  P =  100000.      V =  0.00000      BETA =  1.00000      Q =  0.00000    

 Results generated                                                                Time =   9277.29

 Report Writer entered                                                            Time =   9277.80

      BEGIN HEATX TQ-CURVE REPORT FOR BLOCK H101    

      BEGIN COLD-TQCURVE INLET   

      BEGIN HOT-TQCURVE  INLET   
      END HEATX TQ-CURVE REPORT FOR BLOCK H101    

      BEGIN CALCULATIONS FOR PROP-TABLE BINRY-1                                   TIME =   9278.02
      KODE = 3  NTRIAL =   8  T = 596.3156  P = 1.500000E+06  V =  0.00000      BETA =  1.00000      Q =  0.00000    
      KODE = 3  NTRIAL =  11  T = 584.8493  P = 1.500000E+06  V =  0.00000      BETA =  1.00000      Q =  0.00000    
      KODE = 3  NTRIAL =  11  T = 574.2191  P = 1.500000E+06  V =  0.00000      BETA =  1.00000      Q =  0.00000    
      KODE = 3  NTRIAL =  11  T = 564.5782  P = 1.500000E+06  V =  0.00000      BETA =  1.00000      Q =  0.00000    
      KODE = 3  NTRIAL =  11  T = 555.9453  P = 1.500000E+06  V =  0.00000      BETA =  1.00000      Q =  0.00000    
      KODE = 3  NTRIAL =  11  T = 548.2589  P = 1.500000E+06  V =  0.00000      BETA =  1.00000      Q =  0.00000    
      KODE = 3  NTRIAL =  11  T = 541.4223  P = 1.500000E+06  V =  0.00000      BETA =  1.00000      Q =  0.00000    
      KODE = 3  NTRIAL =  11  T = 535.3309  P = 1.500000E+06  V =  0.00000      BETA =  1.00000      Q =  0.00000    
      KODE = 3  NTRIAL =  11  T = 529.8854  P = 1.500000E+06  V =  0.00000      BETA =  1.00000      Q =  0.00000    
      KODE = 3  NTRIAL =  11  T = 524.9978  P = 1.500000E+06  V =  0.00000      BETA =  1.00000      Q =  0.00000    
      KODE = 3  NTRIAL =  11  T = 520.5922  P = 1.500000E+06  V =  0.00000      BETA =  1.00000      Q =  0.00000    
      KODE = 3  NTRIAL =  11  T = 516.6040  P = 1.500000E+06  V =  0.00000      BETA =  1.00000      Q =  0.00000    
      KODE = 3  NTRIAL =  11  T = 512.9791  P = 1.500000E+06  V =  0.00000      BETA =  1.00000      Q =  0.00000    
      KODE = 3  NTRIAL =  10  T = 509.6717  P = 1.500000E+06  V =  0.00000      BETA =  1.00000      Q =  0.00000    
      KODE = 3  NTRIAL =  10  T = 506.6433  P = 1.500000E+06  V =  0.00000      BETA =  1.00000      Q =  0.00000    
      KODE = 3  NTRIAL =  10  T = 503.8613  P = 1.500000E+06  V =  0.00000      BETA =  1.00000      Q =  0.00000    
      KODE = 3  NTRIAL =   9  T = 501.2981  P = 1.500000E+06  V =  0.00000      BETA =  1.00000      Q =  0.00000    
      KODE = 3  NTRIAL =   9  T = 498.9301  P = 1.500000E+06  V =  0.00000      BETA =  1.00000      Q =  0.00000    
      KODE = 3  NTRIAL =   9  T = 496.7370  P = 1.500000E+06  V =  0.00000      BETA =  1.00000      Q =  0.00000    
      KODE = 3  NTRIAL =   9  T = 494.7014  P = 1.500000E+06  V =  0.00000      BETA =  1.00000      Q =  0.00000    
      KODE = 3  NTRIAL =   9  T = 492.8082  P = 1.500000E+06  V =  0.00000      BETA =  1.00000      Q =  0.00000    
      KODE = 3  NTRIAL =   9  T = 491.0443  P = 1.500000E+06  V =  0.00000      BETA =  1.00000      Q =  0.00000    
      KODE = 3  NTRIAL =   9  T = 489.3981  P = 1.500000E+06  V =  0.00000      BETA =  1.00000      Q =  0.00000    
      KODE = 3  NTRIAL =   9  T = 487.8596  P = 1.500000E+06  V =  0.00000      BETA =  1.00000      Q =  0.00000    
      KODE = 3  NTRIAL =   9  T = 486.4199  P = 1.500000E+06  V =  0.00000      BETA =  1.00000      Q =  0.00000    
      KODE = 3  NTRIAL =   9  T = 485.0711  P = 1.500000E+06  V =  0.00000      BETA =  1.00000      Q =  0.00000    
      KODE = 3  NTRIAL =   9  T = 483.8062  P = 1.500000E+06  V =  0.00000      BETA =  1.00000      Q =  0.00000    
      KODE = 3  NTRIAL =   9  T = 482.6190  P = 1.500000E+06  V =  0.00000      BETA =  1.00000      Q =  0.00000    
      KODE = 3  NTRIAL =   9  T = 481.5039  P = 1.500000E+06  V =  0.00000      BETA =  1.00000      Q =  0.00000    
      KODE = 3  NTRIAL =   9  T = 480.4558  P = 1.500000E+06  V =  0.00000      BETA =  1.00000      Q =  0.00000    
      KODE = 3  NTRIAL =   9  T = 479.4703  P = 1.500000E+06  V =  0.00000      BETA =  1.00000      Q =  0.00000    
      KODE = 3  NTRIAL =   9  T = 478.5433  P = 1.500000E+06  V =  0.00000      BETA =  1.00000      Q =  0.00000    
      KODE = 3  NTRIAL =   9  T = 477.6710  P = 1.500000E+06  V =  0.00000      BETA =  1.00000      Q =  0.00000    
      KODE = 3  NTRIAL =   9  T = 476.8501  P = 1.500000E+06  V =  0.00000      BETA =  1.00000      Q =  0.00000    
      KODE = 3  NTRIAL =   9  T = 476.0776  P = 1.500000E+06  V =  0.00000      BETA =  1.00000      Q =  0.00000    
      KODE = 3  NTRIAL =   9  T = 475.3506  P = 1.500000E+06  V =  0.00000      BETA =  1.00000      Q =  0.00000    
      KODE = 3  NTRIAL =   9  T = 474.6666  P = 1.500000E+06  V =  0.00000      BETA =  1.00000      Q =  0.00000    
      KODE = 3  NTRIAL =  28  T = 474.0232  P = 1.500000E+06  V =  0.00000      BETA =  1.00000      Q =  0.00000    
      KODE = 3  NTRIAL =  28  T = 473.4183  P = 1.500000E+06  V =  0.00000      BETA =  1.00000      Q =  0.00000    
      KODE = 3  NTRIAL =  12  T = 472.8499  P = 1.500000E+06  V =  0.00000      BETA =  1.00000      Q =  0.00000    
      KODE = 3  NTRIAL =  11  T = 472.3161  P = 1.500000E+06  V =  0.00000      BETA =  1.00000      Q =  0.00000    
      KODE = 3  NTRIAL =  11  T = 471.8153  P = 1.500000E+06  V =  0.00000      BETA =  1.00000      Q =  0.00000    
      KODE = 3  NTRIAL =  11  T = 471.3459  P = 1.500000E+06  V =  0.00000      BETA =  1.00000      Q =  0.00000    
      KODE = 3  NTRIAL =  11  T = 470.9063  P = 1.500000E+06  V =  0.00000      BETA =  1.00000      Q =  0.00000    
      KODE = 3  NTRIAL =  11  T = 470.4954  P = 1.500000E+06  V =  0.00000      BETA =  1.00000      Q =  0.00000    
      KODE = 3  NTRIAL =  11  T = 470.1117  P = 1.500000E+06  V =  0.00000      BETA =  1.00000      Q =  0.00000    
      KODE = 3  NTRIAL =  11  T = 469.7540  P = 1.500000E+06  V =  0.00000      BETA =  1.00000      Q =  0.00000    
      KODE = 3  NTRIAL =  11  T = 469.4214  P = 1.500000E+06  V =  0.00000      BETA =  1.00000      Q =  0.00000    
      KODE = 3  NTRIAL =  12  T = 469.1127  P = 1.500000E+06  V =  0.00000      BETA =  1.00000      Q =  0.00000    
      KODE = 3  NTRIAL =  13  T = 468.8270  P = 1.500000E+06  V =  0.00000      BETA =  1.00000      Q =  0.00000    
      KODE = 3  NTRIAL =  15  T = 468.6254  P = 1.500000E+06  V =  0.00000      BETA = 0.994869      Q =  0.00000    
      KODE = 3  NTRIAL =   2  T = 468.6254  P = 1.500000E+06  V =  0.00000      BETA = 0.973741      Q =  0.00000    
      KODE = 3  NTRIAL =   2  T = 468.6254  P = 1.500000E+06  V =  0.00000      BETA = 0.952612      Q =  0.00000    
      KODE = 3  NTRIAL =   2  T = 468.6254  P = 1.500000E+06  V =  0.00000      BETA = 0.931483      Q =  0.00000    
      KODE = 3  NTRIAL =   2  T = 468.6254  P = 1.500000E+06  V =  0.00000      BETA = 0.910355      Q =  0.00000    
      KODE = 3  NTRIAL =   2  T = 468.6254  P = 1.500000E+06  V =  0.00000      BETA = 0.889226      Q =  0.00000    
      KODE = 3  NTRIAL =   2  T = 468.6254  P = 1.500000E+06  V =  0.00000      BETA = 0.868097      Q =  0.00000    
      KODE = 3  NTRIAL =   2  T = 468.6254  P = 1.500000E+06  V =  0.00000      BETA = 0.846969      Q =  0.00000    
      KODE = 3  NTRIAL =   2  T = 468.6254  P = 1.500000E+06  V =  0.00000      BETA = 0.825840      Q =  0.00000    
      KODE = 3  NTRIAL =   2  T = 468.6254  P = 1.500000E+06  V =  0.00000      BETA = 0.804711      Q =  0.00000    
      KODE = 3  NTRIAL =   2  T = 468.6254  P = 1.500000E+06  V =  0.00000      BETA = 0.783583      Q =  0.00000    
      KODE = 3  NTRIAL =   2  T = 468.6254  P = 1.500000E+06  V =  0.00000      BETA = 0.762454      Q =  0.00000    
      KODE = 3  NTRIAL =   2  T = 468.6254  P = 1.500000E+06  V =  0.00000      BETA = 0.741325      Q =  0.00000    
      KODE = 3  NTRIAL =   2  T = 468.6254  P = 1.500000E+06  V =  0.00000      BETA = 0.720197      Q =  0.00000    
      KODE = 3  NTRIAL =   2  T = 468.6254  P = 1.500000E+06  V =  0.00000      BETA = 0.699068      Q =  0.00000    
      KODE = 3  NTRIAL =   2  T = 468.6254  P = 1.500000E+06  V =  0.00000      BETA = 0.677939      Q =  0.00000    
      KODE = 3  NTRIAL =   2  T = 468.6254  P = 1.500000E+06  V =  0.00000      BETA = 0.656811      Q =  0.00000    
      KODE = 3  NTRIAL =   2  T = 468.6254  P = 1.500000E+06  V =  0.00000      BETA = 0.635682      Q =  0.00000    
      KODE = 3  NTRIAL =   2  T = 468.6254  P = 1.500000E+06  V =  0.00000      BETA = 0.614553      Q =  0.00000    
      KODE = 3  NTRIAL =   2  T = 468.6254  P = 1.500000E+06  V =  0.00000      BETA = 0.593424      Q =  0.00000    
      KODE = 3  NTRIAL =   2  T = 468.6254  P = 1.500000E+06  V =  0.00000      BETA = 0.572296      Q =  0.00000    
      KODE = 3  NTRIAL =   2  T = 468.6254  P = 1.500000E+06  V =  0.00000      BETA = 0.551167      Q =  0.00000    
      KODE = 3  NTRIAL =   2  T = 468.6254  P = 1.500000E+06  V =  0.00000      BETA = 0.530038      Q =  0.00000    
      KODE = 3  NTRIAL =   2  T = 468.6254  P = 1.500000E+06  V =  0.00000      BETA = 0.508910      Q =  0.00000    
      KODE = 3  NTRIAL =   2  T = 468.6254  P = 1.500000E+06  V =  0.00000      BETA = 0.487781      Q =  0.00000    
      KODE = 3  NTRIAL =   2  T = 468.6254  P = 1.500000E+06  V =  0.00000      BETA = 0.466652      Q =  0.00000    
      KODE = 3  NTRIAL =   2  T = 468.6254  P = 1.500000E+06  V =  0.00000      BETA = 0.445524      Q =  0.00000    
      KODE = 3  NTRIAL =   2  T = 468.6254  P = 1.500000E+06  V =  0.00000      BETA = 0.424395      Q =  0.00000    
      KODE = 3  NTRIAL =   2  T = 468.6254  P = 1.500000E+06  V =  0.00000      BETA = 0.403266      Q =  0.00000    
      KODE = 3  NTRIAL =   2  T = 468.6254  P = 1.500000E+06  V =  0.00000      BETA = 0.382138      Q =  0.00000    
      KODE = 3  NTRIAL =   2  T = 468.6254  P = 1.500000E+06  V =  0.00000      BETA = 0.361009      Q =  0.00000    
      KODE = 3  NTRIAL =   2  T = 468.6254  P = 1.500000E+06  V =  0.00000      BETA = 0.339880      Q =  0.00000    
      KODE = 3  NTRIAL =   2  T = 468.6254  P = 1.500000E+06  V =  0.00000      BETA = 0.318752      Q =  0.00000    
      KODE = 3  NTRIAL =   2  T = 468.6254  P = 1.500000E+06  V =  0.00000      BETA = 0.297623      Q =  0.00000    
      KODE = 3  NTRIAL =   2  T = 468.6254  P = 1.500000E+06  V =  0.00000      BETA = 0.276494      Q =  0.00000    
      KODE = 3  NTRIAL =   2  T = 468.6254  P = 1.500000E+06  V =  0.00000      BETA = 0.255366      Q =  0.00000    
      KODE = 3  NTRIAL =   2  T = 468.6254  P = 1.500000E+06  V =  0.00000      BETA = 0.234237      Q =  0.00000    
      KODE = 3  NTRIAL =   2  T = 468.6254  P = 1.500000E+06  V =  0.00000      BETA = 0.213108      Q =  0.00000    
      KODE = 3  NTRIAL =   2  T = 468.6254  P = 1.500000E+06  V =  0.00000      BETA = 0.191980      Q =  0.00000    
      KODE = 3  NTRIAL =   2  T = 468.6254  P = 1.500000E+06  V =  0.00000      BETA = 0.170851      Q =  0.00000    
      KODE = 3  NTRIAL =   2  T = 468.6254  P = 1.500000E+06  V =  0.00000      BETA = 0.149722      Q =  0.00000    
      KODE = 3  NTRIAL =   2  T = 468.6254  P = 1.500000E+06  V =  0.00000      BETA = 0.128594      Q =  0.00000    
      KODE = 3  NTRIAL =   2  T = 468.6254  P = 1.500000E+06  V =  0.00000      BETA = 0.107465      Q =  0.00000    
      KODE = 3  NTRIAL =   2  T = 468.6254  P = 1.500000E+06  V =  0.00000      BETA = 8.633616E-02  Q =  0.00000    
      KODE = 3  NTRIAL =   2  T = 468.6254  P = 1.500000E+06  V =  0.00000      BETA = 6.520748E-02  Q =  0.00000    
      KODE = 3  NTRIAL =   2  T = 468.6254  P = 1.500000E+06  V =  0.00000      BETA = 4.407880E-02  Q =  0.00000    
      KODE = 3  NTRIAL =   2  T = 468.6254  P = 1.500000E+06  V =  0.00000      BETA = 2.295012E-02  Q =  0.00000    
      KODE = 3  NTRIAL =   2  T = 468.6254  P = 1.500000E+06  V =  0.00000      BETA = 1.821443E-03  Q =  0.00000    
      KODE = 3  NTRIAL =  17  T = 469.0753  P = 1.500000E+06  V =  0.00000      BETA =  1.00000      Q =  0.00000    
      KODE = 3  NTRIAL =   7  T = 469.9623  P = 1.500000E+06  V =  0.00000      BETA =  1.00000      Q =  0.00000    
      KODE = 3  NTRIAL =   4  T = 471.5536  P = 1.500000E+06  V =  0.00000      BETA =  1.00000      Q =  0.00000    

      BEGIN CALCULATIONS FOR PROP-TABLE BINRY-2                                   TIME =   9278.09
      KODE = 3  NTRIAL =   5  T = 456.9010  P =  100000.      V =  0.00000      BETA =  1.00000      Q =  0.00000    
      KODE = 3  NTRIAL =   8  T = 433.8439  P =  100000.      V =  0.00000      BETA =  1.00000      Q =  0.00000    
      KODE = 3  NTRIAL =   9  T = 419.9221  P =  100000.      V =  0.00000      BETA =  1.00000      Q =  0.00000    
      KODE = 3  NTRIAL =   8  T = 410.4501  P =  100000.      V =  0.00000      BETA =  1.00000      Q =  0.00000    
      KODE = 3  NTRIAL =   7  T = 403.4827  P =  100000.      V =  0.00000      BETA =  1.00000      Q =  0.00000    
      KODE = 3  NTRIAL =   7  T = 398.0865  P =  100000.      V =  0.00000      BETA =  1.00000      Q =  0.00000    
      KODE = 3  NTRIAL =   7  T = 393.7553  P =  100000.      V =  0.00000      BETA =  1.00000      Q =  0.00000    
      KODE = 3  NTRIAL =   7  T = 390.1883  P =  100000.      V =  0.00000      BETA =  1.00000      Q =  0.00000    
      KODE = 3  NTRIAL =   7  T = 387.1941  P =  100000.      V =  0.00000      BETA =  1.00000      Q =  0.00000    
      KODE = 3  NTRIAL =   7  T = 384.6441  P =  100000.      V =  0.00000      BETA =  1.00000      Q =  0.00000    
      KODE = 3  NTRIAL =   7  T = 382.4482  P =  100000.      V =  0.00000      BETA =  1.00000      Q =  0.00000    
      KODE = 3  NTRIAL =   7  T = 380.5412  P =  100000.      V =  0.00000      BETA =  1.00000      Q =  0.00000    
      KODE = 3  NTRIAL =   7  T = 378.8744  P =  100000.      V =  0.00000      BETA =  1.00000      Q =  0.00000    
      KODE = 3  NTRIAL =   6  T = 377.4107  P =  100000.      V =  0.00000      BETA =  1.00000      Q =  0.00000    
      KODE = 3  NTRIAL =   6  T = 376.1213  P =  100000.      V =  0.00000      BETA =  1.00000      Q =  0.00000    
      KODE = 3  NTRIAL =   6  T = 374.9832  P =  100000.      V =  0.00000      BETA =  1.00000      Q =  0.00000    
      KODE = 3  NTRIAL =   6  T = 373.9780  P =  100000.      V =  0.00000      BETA =  1.00000      Q =  0.00000    
      KODE = 3  NTRIAL =   6  T = 373.0909  P =  100000.      V =  0.00000      BETA =  1.00000      Q =  0.00000    
      KODE = 3  NTRIAL =   6  T = 372.3093  P =  100000.      V =  0.00000      BETA =  1.00000      Q =  0.00000    
      KODE = 3  NTRIAL =   9  T = 371.8387  P =  100000.      V =  0.00000      BETA = 0.989302      Q =  0.00000    
      KODE = 3  NTRIAL =   2  T = 371.8387  P =  100000.      V =  0.00000      BETA = 0.956736      Q =  0.00000    
      KODE = 3  NTRIAL =   2  T = 371.8387  P =  100000.      V =  0.00000      BETA = 0.924170      Q =  0.00000    
      KODE = 3  NTRIAL =   2  T = 371.8387  P =  100000.      V =  0.00000      BETA = 0.891605      Q =  0.00000    
      KODE = 3  NTRIAL =   2  T = 371.8387  P =  100000.      V =  0.00000      BETA = 0.859039      Q =  0.00000    
      KODE = 3  NTRIAL =   2  T = 371.8387  P =  100000.      V =  0.00000      BETA = 0.826473      Q =  0.00000    
      KODE = 3  NTRIAL =   2  T = 371.8387  P =  100000.      V =  0.00000      BETA = 0.793908      Q =  0.00000    
      KODE = 3  NTRIAL =   2  T = 371.8387  P =  100000.      V =  0.00000      BETA = 0.761342      Q =  0.00000    
      KODE = 3  NTRIAL =   2  T = 371.8387  P =  100000.      V =  0.00000      BETA = 0.728776      Q =  0.00000    
      KODE = 3  NTRIAL =   2  T = 371.8387  P =  100000.      V =  0.00000      BETA = 0.696211      Q =  0.00000    
      KODE = 3  NTRIAL =   2  T = 371.8387  P =  100000.      V =  0.00000      BETA = 0.663645      Q =  0.00000    
      KODE = 3  NTRIAL =   2  T = 371.8387  P =  100000.      V =  0.00000      BETA = 0.631080      Q =  0.00000    
      KODE = 3  NTRIAL =   2  T = 371.8387  P =  100000.      V =  0.00000      BETA = 0.598514      Q =  0.00000    
      KODE = 3  NTRIAL =   2  T = 371.8387  P =  100000.      V =  0.00000      BETA = 0.565948      Q =  0.00000    
      KODE = 3  NTRIAL =   2  T = 371.8387  P =  100000.      V =  0.00000      BETA = 0.533383      Q =  0.00000    
      KODE = 3  NTRIAL =   2  T = 371.8387  P =  100000.      V =  0.00000      BETA = 0.500817      Q =  0.00000    
      KODE = 3  NTRIAL =   2  T = 371.8387  P =  100000.      V =  0.00000      BETA = 0.468251      Q =  0.00000    
      KODE = 3  NTRIAL =   2  T = 371.8387  P =  100000.      V =  0.00000      BETA = 0.435686      Q =  0.00000    
      KODE = 3  NTRIAL =   2  T = 371.8387  P =  100000.      V =  0.00000      BETA = 0.403120      Q =  0.00000    
      KODE = 3  NTRIAL =   2  T = 371.8387  P =  100000.      V =  0.00000      BETA = 0.370555      Q =  0.00000    
      KODE = 3  NTRIAL =   2  T = 371.8387  P =  100000.      V =  0.00000      BETA = 0.337989      Q =  0.00000    
      KODE = 3  NTRIAL =   2  T = 371.8387  P =  100000.      V =  0.00000      BETA = 0.305423      Q =  0.00000    
      KODE = 3  NTRIAL =   2  T = 371.8387  P =  100000.      V =  0.00000      BETA = 0.272858      Q =  0.00000    
      KODE = 3  NTRIAL =   2  T = 371.8387  P =  100000.      V =  0.00000      BETA = 0.240292      Q =  0.00000    
      KODE = 3  NTRIAL =   2  T = 371.8387  P =  100000.      V =  0.00000      BETA = 0.207726      Q =  0.00000    
      KODE = 3  NTRIAL =   2  T = 371.8387  P =  100000.      V =  0.00000      BETA = 0.175161      Q =  0.00000    
      KODE = 3  NTRIAL =   2  T = 371.8387  P =  100000.      V =  0.00000      BETA = 0.142595      Q =  0.00000    
      KODE = 3  NTRIAL =   2  T = 371.8387  P =  100000.      V =  0.00000      BETA = 0.110030      Q =  0.00000    
      KODE = 3  NTRIAL =   2  T = 371.8387  P =  100000.      V =  0.00000      BETA = 7.746390E-02  Q =  0.00000    
      KODE = 3  NTRIAL =   2  T = 371.8387  P =  100000.      V =  0.00000      BETA = 4.489827E-02  Q =  0.00000    
      KODE = 3  NTRIAL =   2  T = 371.8387  P =  100000.      V =  0.00000      BETA = 1.233264E-02  Q =  0.00000    
      KODE = 3  NTRIAL =   2  T = 372.7276  P =  100000.      V =  0.00000      BETA =  1.00000      Q =  0.00000    

 Results generated                                                                Time =   9278.12

RUN SAVED



 *** SUMMARY OF ERRORS ***

                  PHYSICAL
                  PROPERTY  SYSTEM  SIMULATION
 TERMINAL ERRORS      0        0         0
   SEVERE ERRORS      0        0         0
          ERRORS      0        0        15
        WARNINGS      0        0       114
