
 + + + + + + + + + + + + + + + + + + + + + + + + + + + + + + + + + + + + + + + +
 + + + + + + + + + + + + + + + + + + + + + + + + + + + + + + + + + + + + + + + +
 + +                                                                         + +
 + +                      ASPEN PLUS CALCULATION HISTORY                     + +
 + +                                                                         + +
 + + + + + + + + + + + + + + + + + + + + + + + + + + + + + + + + + + + + + + + +
 + + + + + + + + + + + + + + + + + + + + + + + + + + + + + + + + + + + + + + + +

 ASPEN PLUS IS A TRADEMARK OF           HOTLINE:
 ASPEN TECHNOLOGY, INC.                 U.S.A. 888/996-7100
 781/221-6400                           EUROPE (44) 1189-226555

 PLATFORM: WIN-X64                                       APRIL 14, 2026      
 VERSION: 41.0   Build 609                               TUESDAY     
 INSTALLATION:                                           1:50:46 A.M.        

 THIS COPY OF ASPEN PLUS LICENSED TO UNIVERSITY OF BRITISH CO        


      ASPEN PLUS (R) IS A PROPRIETARY PRODUCT OF ASPEN TECHNOLOGY, INC.
      (ASPENTECH), AND MAY BE USED ONLY UNDER AGREEMENT WITH ASPENTECH.
      RESTRICTED RIGHTS LEGEND:  USE, REPRODUCTION, OR DISCLOSURE BY THE
      U.S. GOVERNMENT IS SUBJECT TO RESTRICTIONS SET FORTH IN 
      (i) FAR 52.227-14, Alt. III, (ii) FAR 52.227-19, (iii) DFARS 
      252.227-7013(c)(1)(ii), or (iv) THE ACCOMPANYING LICENSE AGREEMENT,
      AS APPLICABLE. FOR PURPOSES OF THE FAR, THIS SOFTWARE SHALL BE DEEMED
      TO BE "UNPUBLISHED" AND LICENSED WITH DISCLOSURE PROHIBITIONS.
      CONTRACTOR/SUBCONTRACTOR: ASPEN TECHNOLOGY, INC. 20 CROSBY DRIVE,
      BEDFORD, MA 01730.
 *** INPUT SUMMARY ***

 >>CURRENT RUN

   ORIGINAL RUN                           APRIL 14, 2026      
   1:50:46 A.M.                           TUESDAY     
   INPUT FILE: _5030tdh.inm
   RUN ID : _5030tdh
          1    ;
          2    ;Input file created by Aspen Plus Rel. 41.0 at 01:50:46 Tue Apr 14, 2026
          3    ;Directory   Runid TERM PROJECT - CHECKPOINT 5 FINAL SUBMISSION - MUHAMAD NABIL ALHANIF
          4    ;
          5
          6
          7    DYNAMICS
          8        DYNAMICS RESULTS=ON
          9
         10    IN-UNITS MET PRESSURE=bar TEMPERATURE=C DELTA-T=C PDROP=bar  &
         11            INVERSE-PRES='1/bar' SHORT-LENGTH=mm
         12
         13    DEF-STREAMS CONVEN ALL
         14
         15    MODEL-OPTION
         16
         17    DATABANKS 'APV150 PURE41' / 'APV150 AQUEOUS' / 'APV150 SOLIDS' &
         18             / 'APV150 INORGANIC' / 'APESV150 AP-EOS' /  &
         19            'NISTV150 NIST-TRC' / NOASPENPCD
         20
         21    PROP-SOURCES 'APV150 PURE41' / 'APV150 AQUEOUS' /  &
         22            'APV150 SOLIDS' / 'APV150 INORGANIC' / 'APESV150 AP-EOS' &
         23             / 'NISTV150 NIST-TRC'
         24
         25    COMPONENTS
         26        HYDROGEN H2 /
         27        NITROBEN C6H5NO2 /
         28        ANILINE C6H7N-1 /
         29        WATER H2O /
         30        HEPTANE C7H16-1
         31
         32    HENRY-COMPS HC-1 HYDROGEN
         33
         34    SOLVE
         35        RUN-MODE MODE=SIM
         36
         37    FLOWSHEET
         38        BLOCK R101 IN=FEED-MIX OUT=PROD
         39        BLOCK D101 IN=COOL-PR OUT=VAPOUR LIQUID
         40        BLOCK M101 IN=FEED RECYCLE OUT=FEED-MIX
         41        BLOCK S101 IN=VAPOUR OUT=RECYCLE PURGE
         42        BLOCK D102 IN=LIQUID SOLVENT OUT=EXTRCT RFFNT
         43        BLOCK D103 IN=EXTRCT OUT=DSTL BTTM
         44        BLOCK H101 IN=PROD COOL-IN OUT=COOL-PR COOL-OUT
         45
         46    PROPERTIES PSRK
         47        PROPERTIES NRTL / UNIFAC / UNIQUAC
         48
         49    ESTIMATE ALL
         50
         51    PROP-DATA HENRY-1
         52        IN-UNITS MET PRESSURE=bar TEMPERATURE=C DELTA-T=C PDROP=bar  &
         53            INVERSE-PRES='1/bar' SHORT-LENGTH=mm
         54        PROP-LIST HENRY
         55        BPVAL HYDROGEN NITROBEN 37.23217254 -850.3300170  &
         56            -4.500700000 0.0 24.85000000 69.85000000 0.0
         57        BPVAL HYDROGEN ANILINE 13.50557354 -1295.099976 0.0 0.0  &
         58            20.00000000 25.00000000 0.0
         59        BPVAL HYDROGEN WATER 180.0660745 -6993.510000 -26.31190000  &
         60            .0150431000 .8500000000 65.85000000 0.0
         61        BPVAL HYDROGEN HEPTANE 62.03757354 -1196.400024 -9.565100000  &
         62            .0126410000 -35.00000000 50.00000000 0.0
         63
         64    PROP-DATA NRTL-1
         65        IN-UNITS MET PRESSURE=bar TEMPERATURE=C DELTA-T=C PDROP=bar  &
         66            INVERSE-PRES='1/bar' SHORT-LENGTH=mm
         67        PROP-LIST NRTL
         68        BPVAL NITROBEN ANILINE 0.0 284.9657000 .3000000000 0.0 0.0  &
         69            0.0 83.00000000 99.00000000
         70        BPVAL ANILINE NITROBEN 0.0 -216.2556000 .3000000000 0.0  &
         71            0.0 0.0 83.00000000 99.00000000
         72        BPVAL NITROBEN WATER -5.154900000 2270.617200 .2000000000  &
         73            0.0 0.0 0.0 0.0 106.6000000
         74        BPVAL WATER NITROBEN 5.854700000 229.4967000 .2000000000  &
         75            0.0 0.0 0.0 0.0 106.6000000
         76        BPVAL ANILINE WATER -.8969000000 509.3646000 .3000000000  &
         77            0.0 0.0 0.0 99.00000000 168.0000000
         78        BPVAL WATER ANILINE 2.238300000 362.5433000 .3000000000 0.0  &
         79            0.0 0.0 99.00000000 168.0000000
         80        BPVAL ANILINE HEPTANE .7215000000 182.1659000 .3000000000  &
         81            0.0 0.0 0.0 51.50000000 165.5000000
         82        BPVAL HEPTANE ANILINE -1.852200000 1172.585800 .3000000000  &
         83            0.0 0.0 0.0 51.50000000 165.5000000
         84        BPVAL WATER HEPTANE 10.54680000 440.7775000 .2000000000 0.0  &
         85            0.0 0.0 0.0 50.00000000
         86        BPVAL HEPTANE WATER -9.865200000 4795.660200 .2000000000  &
         87            0.0 0.0 0.0 0.0 50.00000000
         88
         89    PROP-DATA UNIQ-1
         90        IN-UNITS MET PRESSURE=bar TEMPERATURE=C DELTA-T=C PDROP=bar  &
         91            INVERSE-PRES='1/bar' SHORT-LENGTH=mm
         92        PROP-LIST UNIQ
         93        BPVAL NITROBEN ANILINE 0.0 -159.2074000 0.0 0.0  &
         94            83.00000000 99.00000000 0.0
         95        BPVAL ANILINE NITROBEN 0.0 125.3297000 0.0 0.0 83.00000000  &
         96            99.00000000 0.0
         97        BPVAL NITROBEN WATER 0.0 -613.0500000 0.0 0.0 20.00000000  &
         98            40.00000000 0.0
         99        BPVAL WATER NITROBEN 0.0 -254.9500000 0.0 0.0 20.00000000  &
        100            40.00000000 0.0
        101        BPVAL ANILINE WATER -.4676000000 -172.2809000 0.0 0.0  &
        102            99.00000000 168.0000000 0.0
        103        BPVAL WATER ANILINE .6554000000 -168.0642000 0.0 0.0  &
        104            99.00000000 168.0000000 0.0
        105        BPVAL ANILINE HEPTANE -1.586100000 638.9305000 0.0 0.0  &
        106            51.50000000 165.5000000 0.0
        107        BPVAL HEPTANE ANILINE 2.881200000 -1390.510700 0.0 0.0  &
        108            51.50000000 165.5000000 0.0
        109        BPVAL WATER HEPTANE 0.0 -575.8500000 0.0 0.0 20.00000000  &
        110            40.00000000 0.0
        111        BPVAL HEPTANE WATER 0.0 -1283.200000 0.0 0.0 20.00000000  &
        112            40.00000000 0.0
        113
        114    STREAM COOL-IN
        115        SUBSTREAM MIXED TEMP=20. PRES=1. <atm>  &
        116            MASS-FLOW=111. <tonne/hr>
        117        MASS-FRAC WATER 1.
        118
        119    STREAM FEED
        120        SUBSTREAM MIXED TEMP=25. PRES=1.5 <MPa>
        121        MOLE-FLOW HYDROGEN 6875000. <kmol/oper-year> / NITROBEN  &
        122            1356437.5 <kmol/oper-year> / ANILINE 0. <kmol/oper-year> /  &
        123            WATER 18562.5 <kmol/oper-year>
        124
        125    STREAM SOLVENT
        126        SUBSTREAM MIXED TEMP=50. PRES=0.1 <MPa> MOLE-FLOW=100.
        127        MOLE-FRAC HEPTANE 1.
        128
        129    BLOCK M101 MIXER
        130        PARAM
        131
        132    BLOCK S101 FSPLIT
        133        FRAC RECYCLE 0.8
        134
        135    BLOCK D101 FLASH2
        136        PARAM TEMP=50. PRES=0. <MPa> NPHASE=3
        137        BLOCK-OPTION FREE-WATER=NO
        138
        139    BLOCK H101 HEATX
        140        PARAM T-HOT=50. CALC-TYPE=DESIGN TYPE=COUNTERCURRE  &
        141            U-OPTION=PHASE F-OPTION=CONSTANT CALC-METHOD=SHORTCUT
        142        FEEDS HOT=PROD COLD=COOL-IN
        143        OUTLETS-HOT COOL-PR
        144        OUTLETS-COLD COOL-OUT
        145        HEAT-TR-COEF B-L=600. <Watt/sqm-K> V-L=500. <Watt/sqm-K>
        146        FLASH-SPECS COOL-PR NPHASE=3 FREE-WATER=NO
        147        HOT-SIDE DP-OPTION=CONSTANT DPPARMOPT=NO
        148        COLD-SIDE DP-OPTION=CONSTANT DPPARMOPT=NO
        149        TQ-PARAM CURVE=YES
        150
        151    BLOCK D103 RADFRAC
        152        PARAM NSTAGE=8 ALGORITHM=NONIDEAL INIT-OPTION=STANDARD  &
        153            MAXOL=100 NPHASE=3 DAMPING=NONE
        154        PARAM2
        155        COL-CONFIG CONDENSER=PARTIAL-V
        156        FEEDS EXTRCT 2
        157        PRODUCTS DSTL 1 V / BTTM 8 L
        158        P-SPEC 1 0.1 <MPa>
        159        COL-SPECS D:F=0.51 MOLE-RR=0.135
        160        L2-COMPS WATER
        161        L2-STAGES 1 8
        162        PROPERTIES UNIFAC HENRY-COMPS=HC-1 FREE-WATER=STEAM-TA  &
        163            SOLU-WATER=3 TRUE-COMPS=YES
        164        BLOCK-OPTION FREE-WATER=NO
        165
        166    BLOCK D102 EXTRACT
        167        DESCRIPTION 'Liquid-Liquid Extraction Column'
        168        PARAM NSTAGE=10
        169        FEEDS SOLVENT 10 / LIQUID 1
        170        PRODUCTS EXTRCT 1 L2 / RFFNT 10 L1
        171        P-SPEC 1 0.1 <MPa>
        172        L1-COMPS WATER
        173        L2-COMPS HEPTANE
        174        T-EST 1 50.
        175        PROPERTIES UNIFAC HENRY-COMPS=HC-1 FREE-WATER=STEAM-TA  &
        176            SOLU-WATER=3 TRUE-COMPS=YES
        177
        178    BLOCK R101 RPLUG
        179        PARAM TYPE=T-SPEC NTUBE=50 LENGTH=4.5 DIAM=0.0978  &
        180            IGN-CAT-VOL=NO CAT-PRESENT=YES BED-VOIDAGE=0.6  &
        181            CAT-RHO=1422. <kg/cum>
        182        T-SPEC 0.0 350.
        183        REACTIONS RXN-IDS=R-1
        184
        185    UTILITY U-1 GENERAL
        186        DESCRIPTION 'Cooling Water, Inlet Temp=20 C, Outlet Temp=25 C'
        187        COST ENERGY-PRICE=2.12E-07 <$/kJ>
        188        PARAM UTILITY-TYPE=WATER PRES=1. <atm> PRES-OUT=1. <atm>  &
        189            TIN=20. TOUT=95. CALOPT=FLASH MIN-TAPP=5. CALCCO2=NO  &
        190            HTC=0.0135 <GJ/hr-sqm-C>
        191
        192    EO-CONV-OPTI
        193
        194    CALCULATOR H2-FEED
        195        DEFINE H2RCY MOLE-FLOW STREAM=RECYCLE SUBSTREAM=MIXED  &
        196            COMPONENT=HYDROGEN UOM="kmol/hr"
        197        DEFINE NBFEED MOLE-FLOW STREAM=FEED SUBSTREAM=MIXED  &
        198            COMPONENT=NITROBEN UOM="kmol/hr"
        199        DEFINE H2FEED MOLE-FLOW STREAM=FEED SUBSTREAM=MIXED  &
        200            COMPONENT=HYDROGEN UOM="kmol/hr"
        201    F     H2FEED = 5 * NBFEED - H2RCY
        202        READ-VARS H2RCY NBFEED
        203        WRITE-VARS H2FEED
        204
        205    SENSITIVITY BW-HCF
        206        DESCRIPTION 'Best - worst case for heat exchanger area'
        207        DEFINE AREA BLOCK-VAR BLOCK=H101 VARIABLE=CALC-AREA  &
        208            SENTENCE=RESULTS UOM="sqm"
        209        TABULATE 1 "AREA"
        210        TABULATE 2 "(AREA-197.95)/197.95"
        211        VARY BLOCK-VAR BLOCK=H101 VARIABLE=B-L SENTENCE=HEAT-TR-COEF  &
        212            UOM="Watt/sqm-K"
        213        RANGE OPT-LIST=OLIST LIST=500. 700.
        214        VARY BLOCK-VAR BLOCK=H101 VARIABLE=V-L SENTENCE=HEAT-TR-COEF  &
        215            UOM="Watt/sqm-K"
        216        RANGE OPT-LIST=OLIST LIST=250. 750.
        217
        218    SENSITIVITY CL-HCF
        219        DESCRIPTION  &
        220            'Condensing hot side - liquid cold side heat transfer coef'
        221        DEFINE AREA BLOCK-VAR BLOCK=H101 VARIABLE=CALC-AREA  &
        222            SENTENCE=RESULTS UOM="sqm"
        223        TABULATE 1 "AREA"
        224        TABULATE 2 "(AREA-197.95)/197.95"
        225        VARY BLOCK-VAR BLOCK=H101 VARIABLE=B-L SENTENCE=HEAT-TR-COEF  &
        226            UOM="Watt/sqm-K"
        227        RANGE OPT-LIST=RANGE LOWER="500" UPPER="700" NPOINT="50"
        228
        229    SENSITIVITY D101-T
        230        DESCRIPTION 'Operating temperature of flash chamber D101'
        231        DEFINE ANIVAP MOLE-FLOW STREAM=VAPOUR SUBSTREAM=MIXED  &
        232            COMPONENT=ANILINE UOM="kmol/hr"
        233        DEFINE ANILIQ MOLE-FLOW STREAM=LIQUID SUBSTREAM=MIXED  &
        234            COMPONENT=ANILINE UOM="kmol/hr"
        235        DEFINE HYDROVAP MOLE-FLOW STREAM=VAPOUR SUBSTREAM=MIXED  &
        236            COMPONENT=HYDROGEN UOM="kmol/hr"
        237        DEFINE HYDROLIQ MOLE-FLOW STREAM=LIQUID SUBSTREAM=MIXED  &
        238            COMPONENT=HYDROGEN UOM="kmol/hr"
        239        DEFINE WATERVAP MOLE-FLOW STREAM=VAPOUR SUBSTREAM=MIXED  &
        240            COMPONENT=WATER UOM="kmol/hr"
        241        DEFINE WATERLIQ MOLE-FLOW STREAM=LIQUID SUBSTREAM=MIXED  &
        242            COMPONENT=WATER UOM="kmol/hr"
        243        TABULATE 1 "ANIVAP"
        244        TABULATE 2 "ANILIQ"
        245        TABULATE 3 "HYDROVAP"
        246        TABULATE 4 "HYDROLIQ"
        247        TABULATE 5 "WATERVAP"
        248        TABULATE 6 "WATERLIQ"
        249        TABULATE 7 "ANILIQ/(ANILIQ+ANIVAP)"
        250        TABULATE 8 "WATERLIQ/(WATERLIQ+WATERVAP)"
        251        VARY BLOCK-VAR BLOCK=D101 VARIABLE=TEMP SENTENCE=PARAM UOM= &
        252            "C"
        253        RANGE OPT-LIST=RANGE LOWER="0" UPPER="200" INCR="5"
        254
        255    SENSITIVITY DSTL-RTO
        256        DEFINE ANIFRAC MASS-FRAC STREAM=BTTM SUBSTREAM=MIXED  &
        257            COMPONENT=ANILINE
        258        DEFINE ANIEXT MOLE-FLOW STREAM=EXTRCT SUBSTREAM=MIXED  &
        259            COMPONENT=ANILINE UOM="kmol/hr"
        260        DEFINE ANIBTM MOLE-FLOW STREAM=BTTM SUBSTREAM=MIXED  &
        261            COMPONENT=ANILINE UOM="kmol/hr"
        262        TABULATE 1 "ANIFRAC"
        263        TABULATE 3 "ANIEXT"
        264        TABULATE 4 "ANIBTM"
        265        TABULATE 2 "ANIBTM/ANIEXT" COL-LABEL="RECOVERY"
        266        VARY BLOCK-VAR BLOCK=D103 VARIABLE=D:F SENTENCE=COL-SPECS
        267        RANGE OPT-LIST=RANGE LOWER="0.2" UPPER="0.6" INCR="0.05"
        268
        269    SENSITIVITY HPT-RATE
        270        DESCRIPTION  &
        271            'Heptane solvent molar flowrate into D102 LL extraction column'
        272        DEFINE ANIFEED MOLE-FLOW STREAM=LIQUID SUBSTREAM=MIXED  &
        273            COMPONENT=ANILINE UOM="kmol/hr"
        274        DEFINE ANIEXT MOLE-FLOW STREAM=EXTRCT SUBSTREAM=MIXED  &
        275            COMPONENT=ANILINE UOM="kmol/hr"
        276        DEFINE ANIBTM MOLE-FLOW STREAM=BTTM SUBSTREAM=MIXED  &
        277            COMPONENT=ANILINE UOM="kmol/hr"
        278        DEFINE ANIFRAC MOLE-FRAC STREAM=BTTM SUBSTREAM=MIXED  &
        279            COMPONENT=ANILINE
        280        TABULATE 1 "ANIFEED"
        281        TABULATE 2 "ANIEXT"
        282        TABULATE 3 "ANIBTM"
        283        TABULATE 4 "ANIEXT/ANIFEED" COL-LABEL="LL REC"
        284        TABULATE 5 "ANIBTM/ANIEXT" COL-LABEL="DSTL REC"
        285        TABULATE 6 "ANIFRAC"
        286        VARY STREAM-VAR STREAM=SOLVENT SUBSTREAM=MIXED  &
        287            VARIABLE=MOLE-FLOW UOM="kmol/hr"
        288        RANGE OPT-LIST=RANGE LOWER="25" UPPER="250" INCR="25"
        289
        290    SENSITIVITY LLE-DSTL
        291        DEFINE ANIFEED MOLE-FLOW STREAM=LIQUID SUBSTREAM=MIXED  &
        292            COMPONENT=ANILINE UOM="kmol/hr"
        293        DEFINE ANIEXT MOLE-FLOW STREAM=EXTRCT SUBSTREAM=MIXED  &
        294            COMPONENT=ANILINE UOM="kmol/hr"
        295        DEFINE ANIBTM MOLE-FLOW STREAM=BTTM SUBSTREAM=MIXED  &
        296            COMPONENT=ANILINE UOM="kmol/hr"
        297        DEFINE ANIFRAC MOLE-FRAC STREAM=BTTM SUBSTREAM=MIXED  &
        298            COMPONENT=ANILINE
        299        TABULATE 1 "ANIFEED"
        300        TABULATE 2 "ANIEXT"
        301        TABULATE 3 "ANIBTM"
        302        TABULATE 4 "ANIFRAC"
        303        TABULATE 5 "ANIEXT/ANIFEED"
        304        TABULATE 6 "ANIBTM/ANIEXT" COL-LABEL="RECOVERY"
        305        VARY STREAM-VAR STREAM=SOLVENT SUBSTREAM=MIXED  &
        306            VARIABLE=MOLE-FLOW UOM="kmol/hr"
        307        RANGE OPT-LIST=RANGE LOWER="100" UPPER="150" INCR="5"
        308        VARY BLOCK-VAR BLOCK=D103 VARIABLE=D:F SENTENCE=COL-SPECS
        309        RANGE OPT-LIST=RANGE LOWER="0.35" UPPER="0.55" INCR="0.01"
        310
        311    SENSITIVITY RSIZE-1
        312        DESCRIPTION 'Length and tube number of reactor R101'
        313        DEFINE BENIN MOLE-FLOW STREAM=FEED SUBSTREAM=MIXED  &
        314            COMPONENT=NITROBEN UOM="kmol/hr"
        315        DEFINE BENOUT MOLE-FLOW STREAM=PROD SUBSTREAM=MIXED  &
        316            COMPONENT=NITROBEN UOM="kmol/hr"
        317        DEFINE ANIPROD MASS-FLOW STREAM=PROD SUBSTREAM=MIXED  &
        318            COMPONENT=ANILINE UOM="tonne/oper-year"
        319        TABULATE 1 "ANIPROD"
        320        TABULATE 2 "(benin-benout)/benin"
        321        VARY BLOCK-VAR BLOCK=R101 VARIABLE=LENGTH SENTENCE=PARAM  &
        322            UOM="meter"
        323        RANGE OPT-LIST=RANGE LOWER="2" UPPER="12" INCR="0.5"
        324        VARY BLOCK-VAR BLOCK=R101 VARIABLE=NTUBE SENTENCE=PARAM
        325        RANGE OPT-LIST=RANGE LOWER="20" UPPER="204" INCR="2"
        326
        327    SENSITIVITY S101-SF
        328        DESCRIPTION 'S101 Split Fraction going into the recycle stream'
        329        DEFINE NBIN MOLE-FLOW STREAM=FEED SUBSTREAM=MIXED  &
        330            COMPONENT=NITROBEN UOM="kmol/hr"
        331        DEFINE NBOUT MOLE-FLOW STREAM=PROD SUBSTREAM=MIXED  &
        332            COMPONENT=NITROBEN UOM="kmol/hr"
        333        DEFINE ANIPROD MOLE-FLOW STREAM=PROD SUBSTREAM=MIXED  &
        334            COMPONENT=ANILINE UOM="kmol/hr"
        335        DEFINE ANIREC MOLE-FLOW STREAM=LIQUID SUBSTREAM=MIXED  &
        336            COMPONENT=ANILINE UOM="kmol/hr"
        337        TABULATE 1 "NBIN"
        338        TABULATE 2 "NBOUT"
        339        TABULATE 3 "ANIPROD"
        340        TABULATE 4 "ANIREC"
        341        TABULATE 5 "(NBIN-NBOUT)/NBIN"
        342        TABULATE 6 "ANIREC/ANIPROD"
        343        VARY BLOCK-VAR BLOCK=S101 SENTENCE=FRAC VARIABLE=FRAC  &
        344            ID1=RECYCLE
        345        RANGE OPT-LIST=RANGE LOWER="0.05" UPPER="0.95" INCR="0.05"
        346
        347    SENSITIVITY VL-HCF
        348        DESCRIPTION  &
        349            'Vapour hot side - liquid cold side heat transfer coef'
        350        DEFINE AREA BLOCK-VAR BLOCK=H101 VARIABLE=CALC-AREA  &
        351            SENTENCE=RESULTS UOM="sqm"
        352        TABULATE 1 "AREA"
        353        TABULATE 2 "(AREA-197.95)/197.95"
        354        VARY BLOCK-VAR BLOCK=H101 VARIABLE=V-L SENTENCE=HEAT-TR-COEF  &
        355            UOM="Watt/sqm-K"
        356        RANGE OPT-LIST=RANGE LOWER="250" UPPER="750" NPOINT="50"
        357
        358    CONSTRAINT AN-EXT-R
        359    ;  "Aniline recovery in D102's extract stream"
        360
        361        DEFINE ANIIN MOLE-FLOW STREAM=LIQUID SUBSTREAM=MIXED  &
        362            COMPONENT=ANILINE UOM="kmol/hr"
        363        DEFINE ANIOUT MOLE-FLOW STREAM=EXTRCT SUBSTREAM=MIXED  &
        364            COMPONENT=ANILINE UOM="kmol/hr"
        365        SPEC "ANIOUT/ANIIN" GE "0.999"
        366        TOL-SPEC "0.001"
        367
        368    OPTIMIZATION HPT-RATE
        369    ;  'Heptane solvent flow rate into D102 LL extraction'
        370
        371        DEFINE HPTFLOW MOLE-FLOW STREAM=SOLVENT SUBSTREAM=MIXED  &
        372            COMPONENT=HEPTANE UOM="kmol/hr"
        373        MINIMIZE "HPTFLOW"
        374        CONSTRAINTS AN-EXT-R
        375        VARY STREAM-VAR STREAM=SOLVENT SUBSTREAM=MIXED  &
        376            VARIABLE=MOLE-FLOW UOM="kmol/hr"
        377        LIMITS "1" "200"
        378
        379    STREAM-REPOR MOLEFLOW
        380
        381    PROPERTY-REP PCES
        382
        383    REACTIONS R-1 POWERLAW
        384        REAC-DATA 1 PHASE=V CBASIS=PARTIALPRES RBASIS=CAT-WT
        385        RATE-CON 1 PRE-EXP=0.0001125 ACT-ENERGY=68507.36 <kJ/kmol>
        386        STOIC 1 MIXED NITROBEN -1. / HYDROGEN -3. / ANILINE 1. / &
        387            WATER 2.
        388        POWLAW-EXP 1 MIXED NITROBEN 0.5 / MIXED HYDROGEN 0.5
        389
        390    PROP-TABLE BINRY-1 FLASHCURVE
        391        IN-UNITS MET PRESSURE=MPa TEMPERATURE=C DELTA-T=C PDROP=bar  &
        392            INVERSE-PRES='1/bar' SHORT-LENGTH=mm
        393        PROPERTIES PSRK FREE-WATER=STEAM-TA SOLU-WATER=3  &
        394            TRUE-COMPS=YES
        395        BLOCK-OPTION FREE-WATER=NO
        396        MOLE-FLOW ANILINE 1 /  WATER  1
        397        STATE VFRAC=0.0
        398        ANALYSIS ANAL-TYPE=TXY
        399        VARY PRES
        400        RANGE LIST=1.5
        401        VARY MOLEFRAC COMP=WATER
        402        RANGE VARVALUE=RANGE LOWER=0.0 UPPER=1.0 NPOINT=100
        403        PARAM NPHASE=3 MAXIT=100
        404
        405    PROP-TABLE BINRY-2 FLASHCURVE
        406        IN-UNITS MET PRESSURE=MPa TEMPERATURE=C DELTA-T=C PDROP=bar  &
        407            INVERSE-PRES='1/bar' SHORT-LENGTH=mm
        408        PROPERTIES PSRK FREE-WATER=STEAM-TA SOLU-WATER=3  &
        409            TRUE-COMPS=YES
        410        MOLE-FLOW ANILINE 1 /  WATER  1
        411        STATE VFRAC=0.0
        412        ANALYSIS ANAL-TYPE=TXY
        413        VARY PRES
        414        RANGE LIST=0.1
        415        VARY MOLEFRAC COMP=WATER
        416        RANGE VARVALUE=RANGE LOWER=0.0 UPPER=1.0 NPOINT=50
        417        PARAM NPHASE=3
        418
        419    DISABLE
        420        SENSITIVITY D101-T DSTL-RTO HPT-RATE LLE-DSTL RSIZE-1  &
        421            S101-SF
        422        CONSTRAINT AN-EXT-R
        423        OPTIMIZATION HPT-RATE
        424    ;
        425    ;
        426    ;
        427    ;
        428    ;
 *** INPUT TRANSLATOR MESSAGES ***

      SQLLOCALDB.APESV150 : (DATAVERSION - 41.0.0.10)                         
      SQLLOCALDB.APV150 : (DATAVERSION - 41.0.0.9)                            
      SQLLOCALDB.FACTV150 : (DATAVERSION - 41.0.0.6)                          
      SQLLOCALDB.NISTV150 : (DATAVERSION - 41.0.0.7)                          
  *** THIS RUN USES THE PROPERTIES ENTERPRISE DATABASE ***

      INFORMATION                                              (PSTOP1AP.1)     
      THERE ARE HENRY COMPONENTS DEFINED IN THIS CASE, THE BINARY DATABANK      
      WILL BE SEARCHED AUTOMATICALLY FOR ANY AVAILABLE HENRY CONSTANTS.         



  *   WARNING WHILE CHECKING INPUT SPECIFICATIONS              (PRPCHK.1)       
      INCONSISTENT PROPERTIES DETECTED FOR 1 STREAMS                            
      SOURCE BLOCK        PROPERTIES STREAM   DESTINATION BLOCK   PROPERTIES    
      =================== ========== ======== =================== ==========    
      D101                PSRK       LIQUID   D102                UNIFAC        
 
 CONSTRAINT: AN-EXT-R WILL BE INTERPRETED 
 CALCULATOR BLOCK: H2-FEED WILL BE INTERPRETED 
 SENSITIVITY BLOCK: BW-HCF WILL BE INTERPRETED 
 SENSITIVITY BLOCK: CL-HCF WILL BE INTERPRETED 
 SENSITIVITY BLOCK: D101-T WILL BE INTERPRETED 
 SENSITIVITY BLOCK: DSTL-RTO WILL BE INTERPRETED 
 SENSITIVITY BLOCK: HPT-RATE WILL BE INTERPRETED 
 SENSITIVITY BLOCK: LLE-DSTL WILL BE INTERPRETED 
 SENSITIVITY BLOCK: RSIZE-1 WILL BE INTERPRETED 
 SENSITIVITY BLOCK: S101-SF WILL BE INTERPRETED 
 SENSITIVITY BLOCK: VL-HCF WILL BE INTERPRETED 
 OPTIMIZATION: HPT-RATE WILL BE INTERPRETED 
 

 PDF updated                                                                      TIME =      3.02

 *** CALCULATION TRACE ***


 *** FLOWSHEET ANALYSIS MESSAGES ***

 FLOWSHEET CONNECTIVITY BY STREAMS       

   STREAM     SOURCE     DEST           STREAM     SOURCE     DEST
   FEED       ----       M101           SOLVENT    ----       D102    
   COOL-IN    ----       H101           PROD       R101       H101    
   VAPOUR     D101       S101           LIQUID     D101       D102    
   FEED-MIX   M101       R101           RECYCLE    S101       M101    
   PURGE      S101       ----           EXTRCT     D102       D103    
   RFFNT      D102       ----           DSTL       D103       ----    
   BTTM       D103       ----           COOL-PR    H101       D101    
   COOL-OUT   H101       ----                                         

 FLOWSHEET CONNECTIVITY BY BLOCKS        

   BLOCK        INLETS                         OUTLETS
   R101         FEED-MIX                       PROD                        
   D101         COOL-PR                        VAPOUR LIQUID               
   M101         FEED RECYCLE                   FEED-MIX                    
   S101         VAPOUR                         RECYCLE PURGE               
   D102         LIQUID SOLVENT                 EXTRCT RFFNT                
   D103         EXTRCT                         DSTL BTTM                   
   H101         PROD COOL-IN                   COOL-PR COOL-OUT            

      BLOCK $OLVER01 (METHOD: WEGSTEIN) HAS BEEN DEFINED TO CONVERGE
               STREAMS: RECYCLE

  *   WARNING DURING FLOWSHEET ANALYSIS                        (AF2MER.2)       
      BECAUSE TEAR-VAR=NO IN CONV-OPTIONS, AN INFORMATION TEAR:                 
         STREAM $WRV7     FROM H2-FEED      TO FST$FEED                         
      WILL NOT BE CONVERGED BY A CONVERGENCE BLOCK. THIS MAY CAUSE              
      CONVERGENCE PROBLEMS OR MISLEADING RESULTS. IF THIS STREAM IS             
      A TEAR, SET TEAR-VAR=YES IN CONV-OPTIONS TO CAUSE IT TO BE                
      CONVERGED. OTHERWISE, PLEASE CHECK THE LOCATION OF FORTRAN                
      BLOCK H2-FEED      IN THE SEQUENCE AND CONSIDER MOVING                    
      IT BY USING THE 'EXECUTE' KEYWORD OR OTHER METHODS.                       

      COMPUTATION ORDER FOR THE FLOWSHEET IS:
      BW-HCF 
      |  CL-HCF 
      |  |  VL-HCF 
      |  |  |  $OLVER01 M101 R101 H101 D101 S101 H2-FEED 
      |  |  |  (RETURN $OLVER01) 
      |  |  (RETURN VL-HCF) 
      |  (RETURN CL-HCF) 
      (RETURN BW-HCF) 
      D102 D103 U-1 

Calculations begin                                                              time      0.32


 SIMULATION CALCULATIONS BEGIN                                                    TIME =      0.32

 SENSITIVITY BLOCK BW-HCF   ROW     0 (BASE CASE) EVALUATION BEGINS               TIME =      0.32

 SENSITIVITY BLOCK CL-HCF   ROW     0 (BASE CASE) EVALUATION BEGINS               TIME =      0.32

 SENSITIVITY BLOCK VL-HCF   ROW     1 EVALUATION BEGINS                           TIME =      0.32
      VARY VARIABLES:   250.00    

      CONVERGENCE BLOCK $OLVER01  METHOD: WEGSTEIN                                TIME =      0.32
      ITER   0 For Tear Streams: RECYCLE

      ENTHALPY CALCULATION FOR INLET STREAM FEED OF BLOCK M101                    TIME =      0.32
      KODE = 2  NTRIAL =   5  T = 298.1500  P = 1.500000E+06  V = 0.833178      Q =  0.00000    

      UOS BLOCK M101     MODEL: MIXER                                             TIME =      0.32
      KODE = 1  NTRIAL =  15  T = 298.1500  P = 1.500000E+06  V = 0.833178      Q =  0.00000    

      UOS BLOCK R101     MODEL: RPLUG                                             TIME =      0.32
        AT REACTOR EXIT :
        LENGTH =   4.5000      DIAMETER =  0.97800E-01  RESIDENCE TIME =   1.2861    
        PROCESS STREAM T =    623.15     P =   0.15000E+07 H =  -0.13219E+08 V =    1.0000    

      ENTHALPY CALCULATION FOR INLET STREAM COOL-IN OF BLOCK H101                 TIME =      0.35
      KODE = 2  NTRIAL =   1  T = 293.1500  P =  101325.      V =  0.00000      Q =  0.00000    

      UOS BLOCK H101     MODEL: HEATX                                             TIME =      0.35
      SPECIFICATION: HOT OUTLET TEMP       323.15    
      FLOW TYPE:     COUNTERCURRENT  
      HOT:  TIN=  623.15  PIN=0.15000E+07   TOUT=  323.15  POUT=0.15000E+07
      COLD: TIN=  293.15  PIN=0.10132E+06   TOUT=  367.43  POUT=0.10132E+06
      AREA= 215.61           DUTY=0.96580E+07       FT=1.00000

      UOS BLOCK D101     MODEL: FLASH2                                            TIME =      0.36
      KODE = 2  NTRIAL =  10  T = 323.1500  P = 1.500000E+06  V = 0.409028      BETA = 0.518462      Q =  0.00000    

      UOS BLOCK S101     MODEL: FSPLIT                                            TIME =      0.36
      NO. TEMP ITER =    1     TEMP =  323.150    
      KODE = 1  NTRIAL =   1  T = 323.1500  P = 1.500000E+06  V =  1.00000      Q =  0.00000    
      SPLIT FRACTIONS:  0.80000D+00    0.20000D+00

      CALCULATOR BLOCK H2-FEED                                                    TIME =      0.37
      ---FLASH STREAM FEED    :
      KODE = 2  NTRIAL =   5  T = 298.1500  P = 1.500000E+06  V = 0.767286      Q = -1193.80    

      CONVERGENCE BLOCK $OLVER01  METHOD: WEGSTEIN                                TIME =      0.37
      ITER   1 For Tear Streams: RECYCLE

      --FLASH TEAR STREAM RECYCLE 
      NO. TEMP ITER =    1     TEMP =  323.150    
      KODE = 1  NTRIAL =   1  T = 323.1500  P = 1.500000E+06  V =  1.00000      Q =  0.00000    

  LOOP $OLVER01 ITER    1:   4 VARS NOT CONVERGED, MAX ERR/TOL     0.10000E+07    TIME =      0.37

      UOS BLOCK M101     MODEL: MIXER                                             TIME =      0.38
      KODE = 1  NTRIAL =  14  T = 301.6683  P = 1.500000E+06  V = 0.830313      Q =  0.00000    

      UOS BLOCK R101     MODEL: RPLUG                                             TIME =      0.38
        AT REACTOR EXIT :
        LENGTH =   4.5000      DIAMETER =  0.97800E-01  RESIDENCE TIME =   1.2995    
        PROCESS STREAM T =    623.15     P =   0.15000E+07 H =  -0.13392E+08 V =    1.0000    

      UOS BLOCK H101     MODEL: HEATX                                             TIME =      0.39
      SPECIFICATION: HOT OUTLET TEMP       323.15    
      FLOW TYPE:     COUNTERCURRENT  
      HOT:  TIN=  623.15  PIN=0.15000E+07   TOUT=  323.15  POUT=0.15000E+07
      COLD: TIN=  293.15  PIN=0.10132E+06   TOUT=  367.51  POUT=0.10132E+06
      AREA= 215.59           DUTY=0.96683E+07       FT=1.00000

      UOS BLOCK D101     MODEL: FLASH2                                            TIME =      0.39
      KODE = 2  NTRIAL =   1  T = 323.1500  P = 1.500000E+06  V = 0.399618      BETA = 0.484097      Q =  0.00000    

      UOS BLOCK S101     MODEL: FSPLIT                                            TIME =      0.39
      KODE = 1  NTRIAL =  10  T = 323.1500  P = 1.500000E+06  V =  1.00000      Q =  0.00000    
      SPLIT FRACTIONS:  0.80000D+00    0.20000D+00

      CALCULATOR BLOCK H2-FEED                                                    TIME =      0.39
      ---FLASH STREAM FEED    :
      KODE = 2  NTRIAL =   3  T = 298.1500  P = 1.500000E+06  V = 0.770179      Q =  49.3407    

      CONVERGENCE BLOCK $OLVER01  METHOD: WEGSTEIN                                TIME =      0.40
      ITER   2 For Tear Streams: RECYCLE

      --FLASH TEAR STREAM RECYCLE 
      KODE = 1  NTRIAL =  10  T = 323.1500  P = 1.500000E+06  V =  1.00000      Q =  0.00000    

  LOOP $OLVER01 ITER    2:   4 VARS NOT CONVERGED, MAX ERR/TOL     -332.24        TIME =      0.41

      UOS BLOCK M101     MODEL: MIXER                                             TIME =      0.41
      KODE = 1  NTRIAL =   7  T = 301.5531  P = 1.500000E+06  V = 0.830343      Q =  0.00000    

      UOS BLOCK R101     MODEL: RPLUG                                             TIME =      0.41
        AT REACTOR EXIT :
        LENGTH =   4.5000      DIAMETER =  0.97800E-01  RESIDENCE TIME =   1.2997    
        PROCESS STREAM T =    623.15     P =   0.15000E+07 H =  -0.13388E+08 V =    1.0000    

      UOS BLOCK H101     MODEL: HEATX                                             TIME =      0.42
      SPECIFICATION: HOT OUTLET TEMP       323.15    
      FLOW TYPE:     COUNTERCURRENT  
      HOT:  TIN=  623.15  PIN=0.15000E+07   TOUT=  323.15  POUT=0.15000E+07
      COLD: TIN=  293.15  PIN=0.10132E+06   TOUT=  367.50  POUT=0.10132E+06
      AREA= 215.55           DUTY=0.96671E+07       FT=1.00000

      UOS BLOCK D101     MODEL: FLASH2                                            TIME =      0.42
      KODE = 2  NTRIAL =   1  T = 323.1500  P = 1.500000E+06  V = 0.399658      BETA = 0.484016      Q =  0.00000    

      UOS BLOCK S101     MODEL: FSPLIT                                            TIME =      0.42
      NO. TEMP ITER =    1     TEMP =  323.150    
      KODE = 1  NTRIAL =   1  T = 323.1500  P = 1.500000E+06  V =  1.00000      Q =  0.00000    
      SPLIT FRACTIONS:  0.80000D+00    0.20000D+00

      CALCULATOR BLOCK H2-FEED                                                    TIME =      0.42
      ---FLASH STREAM FEED    :
      KODE = 2  NTRIAL =   1  T = 298.1500  P = 1.500000E+06  V = 0.770180      Q = 2.245464E-03

      CONVERGENCE BLOCK $OLVER01  METHOD: WEGSTEIN                                TIME =      0.42
      ITER   3 For Tear Streams: RECYCLE

  LOOP $OLVER01 ITER    3:     *** CONVERGED *** , MAX ERR/TOL    -0.16898E-01    TIME =      0.43

 SENSITIVITY BLOCK VL-HCF   ROW     2 EVALUATION BEGINS                           TIME =      0.43
      VARY VARIABLES:   260.20    

      CONVERGENCE BLOCK $OLVER01  METHOD: WEGSTEIN                                TIME =      0.43
      ITER   0 For Tear Streams: RECYCLE

      UOS BLOCK M101     MODEL: MIXER                                             TIME =      0.43
      KODE = 1  NTRIAL =   1  T = 301.5531  P = 1.500000E+06  V = 0.830343      Q =  0.00000    

      UOS BLOCK R101     MODEL: RPLUG                                             TIME =      0.43
        AT REACTOR EXIT :
        LENGTH =   4.5000      DIAMETER =  0.97800E-01  RESIDENCE TIME =   1.2997    
        PROCESS STREAM T =    623.15     P =   0.15000E+07 H =  -0.13388E+08 V =    1.0000    

      UOS BLOCK H101     MODEL: HEATX                                             TIME =      0.44
      SPECIFICATION: HOT OUTLET TEMP       323.15    
      FLOW TYPE:     COUNTERCURRENT  
      HOT:  TIN=  623.15  PIN=0.15000E+07   TOUT=  323.15  POUT=0.15000E+07
      COLD: TIN=  293.15  PIN=0.10132E+06   TOUT=  367.50  POUT=0.10132E+06
      AREA= 214.17           DUTY=0.96671E+07       FT=1.00000

      UOS BLOCK D101     MODEL: FLASH2                                            TIME =      0.45
      KODE = 2  NTRIAL =   1  T = 323.1500  P = 1.500000E+06  V = 0.399658      BETA = 0.484016      Q =  0.00000    

      UOS BLOCK S101     MODEL: FSPLIT                                            TIME =      0.45
      NO. TEMP ITER =    3     TEMP =  323.150    
      KODE = 1  NTRIAL =   2  T = 323.1500  P = 1.500000E+06  V =  1.00000      Q =  0.00000    
      SPLIT FRACTIONS:  0.80000D+00    0.20000D+00

      CALCULATOR BLOCK H2-FEED                                                    TIME =      0.45
      ---FLASH STREAM FEED    :
      KODE = 2  NTRIAL =   1  T = 298.1500  P = 1.500000E+06  V = 0.770180      Q =-7.251745E-04

      CONVERGENCE BLOCK $OLVER01  METHOD: WEGSTEIN                                TIME =      0.45
      ITER   1 For Tear Streams: RECYCLE

  LOOP $OLVER01 ITER    1:     *** CONVERGED *** , MAX ERR/TOL    -0.24439E-01    TIME =      0.45

 SENSITIVITY BLOCK VL-HCF   ROW     3 EVALUATION BEGINS                           TIME =      0.46
      VARY VARIABLES:   270.41    

      CONVERGENCE BLOCK $OLVER01  METHOD: WEGSTEIN                                TIME =      0.46
      ITER   0 For Tear Streams: RECYCLE

      UOS BLOCK M101     MODEL: MIXER                                             TIME =      0.46
      KODE = 1  NTRIAL =   1  T = 301.5531  P = 1.500000E+06  V = 0.830343      Q =  0.00000    

      UOS BLOCK R101     MODEL: RPLUG                                             TIME =      0.47
        AT REACTOR EXIT :
        LENGTH =   4.5000      DIAMETER =  0.97800E-01  RESIDENCE TIME =   1.2997    
        PROCESS STREAM T =    623.15     P =   0.15000E+07 H =  -0.13388E+08 V =    1.0000    

      UOS BLOCK H101     MODEL: HEATX                                             TIME =      0.47
      SPECIFICATION: HOT OUTLET TEMP       323.15    
      FLOW TYPE:     COUNTERCURRENT  
      HOT:  TIN=  623.15  PIN=0.15000E+07   TOUT=  323.15  POUT=0.15000E+07
      COLD: TIN=  293.15  PIN=0.10132E+06   TOUT=  367.50  POUT=0.10132E+06
      AREA= 212.89           DUTY=0.96671E+07       FT=1.00000

      UOS BLOCK D101     MODEL: FLASH2                                            TIME =      0.48
      KODE = 2  NTRIAL =   1  T = 323.1500  P = 1.500000E+06  V = 0.399658      BETA = 0.484016      Q =-3.220702E-09

      UOS BLOCK S101     MODEL: FSPLIT                                            TIME =      0.48
      NO. TEMP ITER =    3     TEMP =  323.150    
      KODE = 1  NTRIAL =   2  T = 323.1500  P = 1.500000E+06  V =  1.00000      Q =  0.00000    
      SPLIT FRACTIONS:  0.80000D+00    0.20000D+00

      CALCULATOR BLOCK H2-FEED                                                    TIME =      0.48
      ---FLASH STREAM FEED    :
      KODE = 2  NTRIAL =   1  T = 298.1500  P = 1.500000E+06  V = 0.770180      Q = 2.351343E-04

      CONVERGENCE BLOCK $OLVER01  METHOD: WEGSTEIN                                TIME =      0.48
      ITER   1 For Tear Streams: RECYCLE

  LOOP $OLVER01 ITER    1:     *** CONVERGED *** , MAX ERR/TOL    -0.21995E-01    TIME =      0.49

 SENSITIVITY BLOCK VL-HCF   ROW     4 EVALUATION BEGINS                           TIME =      0.49
      VARY VARIABLES:   280.61    

      CONVERGENCE BLOCK $OLVER01  METHOD: WEGSTEIN                                TIME =      0.49
      ITER   0 For Tear Streams: RECYCLE

      UOS BLOCK M101     MODEL: MIXER                                             TIME =      0.49
      KODE = 1  NTRIAL =   1  T = 301.5531  P = 1.500000E+06  V = 0.830343      Q =  0.00000    

      UOS BLOCK R101     MODEL: RPLUG                                             TIME =      0.50
        AT REACTOR EXIT :
        LENGTH =   4.5000      DIAMETER =  0.97800E-01  RESIDENCE TIME =   1.2997    
        PROCESS STREAM T =    623.15     P =   0.15000E+07 H =  -0.13388E+08 V =    1.0000    

      UOS BLOCK H101     MODEL: HEATX                                             TIME =      0.50
      SPECIFICATION: HOT OUTLET TEMP       323.15    
      FLOW TYPE:     COUNTERCURRENT  
      HOT:  TIN=  623.15  PIN=0.15000E+07   TOUT=  323.15  POUT=0.15000E+07
      COLD: TIN=  293.15  PIN=0.10132E+06   TOUT=  367.50  POUT=0.10132E+06
      AREA= 211.71           DUTY=0.96671E+07       FT=1.00000

      UOS BLOCK D101     MODEL: FLASH2                                            TIME =      0.51
      KODE = 2  NTRIAL =   1  T = 323.1500  P = 1.500000E+06  V = 0.399658      BETA = 0.484016      Q =-3.220702E-09

      UOS BLOCK S101     MODEL: FSPLIT                                            TIME =      0.52
      NO. TEMP ITER =    3     TEMP =  323.150    
      KODE = 1  NTRIAL =   2  T = 323.1500  P = 1.500000E+06  V =  1.00000      Q =  0.00000    
      SPLIT FRACTIONS:  0.80000D+00    0.20000D+00

      CALCULATOR BLOCK H2-FEED                                                    TIME =      0.52
      ---FLASH STREAM FEED    :
      KODE = 2  NTRIAL =   1  T = 298.1500  P = 1.500000E+06  V = 0.770180      Q =-7.620106E-05

      CONVERGENCE BLOCK $OLVER01  METHOD: WEGSTEIN                                TIME =      0.53
      ITER   1 For Tear Streams: RECYCLE

  LOOP $OLVER01 ITER    1:     *** CONVERGED *** , MAX ERR/TOL    -0.22787E-01    TIME =      0.53

 SENSITIVITY BLOCK VL-HCF   ROW     5 EVALUATION BEGINS                           TIME =      0.53
      VARY VARIABLES:   290.82    

      CONVERGENCE BLOCK $OLVER01  METHOD: WEGSTEIN                                TIME =      0.53
      ITER   0 For Tear Streams: RECYCLE

      UOS BLOCK M101     MODEL: MIXER                                             TIME =      0.53
      KODE = 1  NTRIAL =   1  T = 301.5531  P = 1.500000E+06  V = 0.830343      Q =  0.00000    

      UOS BLOCK R101     MODEL: RPLUG                                             TIME =      0.53
        AT REACTOR EXIT :
        LENGTH =   4.5000      DIAMETER =  0.97800E-01  RESIDENCE TIME =   1.2997    
        PROCESS STREAM T =    623.15     P =   0.15000E+07 H =  -0.13388E+08 V =    1.0000    

      UOS BLOCK H101     MODEL: HEATX                                             TIME =      0.54
      SPECIFICATION: HOT OUTLET TEMP       323.15    
      FLOW TYPE:     COUNTERCURRENT  
      HOT:  TIN=  623.15  PIN=0.15000E+07   TOUT=  323.15  POUT=0.15000E+07
      COLD: TIN=  293.15  PIN=0.10132E+06   TOUT=  367.50  POUT=0.10132E+06
      AREA= 210.61           DUTY=0.96671E+07       FT=1.00000

      UOS BLOCK D101     MODEL: FLASH2                                            TIME =      0.55
      KODE = 2  NTRIAL =   1  T = 323.1500  P = 1.500000E+06  V = 0.399658      BETA = 0.484016      Q =  0.00000    

      UOS BLOCK S101     MODEL: FSPLIT                                            TIME =      0.55
      NO. TEMP ITER =    3     TEMP =  323.150    
      KODE = 1  NTRIAL =   2  T = 323.1500  P = 1.500000E+06  V =  1.00000      Q =  0.00000    
      SPLIT FRACTIONS:  0.80000D+00    0.20000D+00

      CALCULATOR BLOCK H2-FEED                                                    TIME =      0.55
      ---FLASH STREAM FEED    :
      KODE = 2  NTRIAL =   1  T = 298.1500  P = 1.500000E+06  V = 0.770180      Q = 2.469485E-05

      CONVERGENCE BLOCK $OLVER01  METHOD: WEGSTEIN                                TIME =      0.55
      ITER   1 For Tear Streams: RECYCLE

  LOOP $OLVER01 ITER    1:     *** CONVERGED *** , MAX ERR/TOL    -0.22530E-01    TIME =      0.56

 SENSITIVITY BLOCK VL-HCF   ROW     6 EVALUATION BEGINS                           TIME =      0.56
      VARY VARIABLES:   301.02    

      CONVERGENCE BLOCK $OLVER01  METHOD: WEGSTEIN                                TIME =      0.56
      ITER   0 For Tear Streams: RECYCLE

      UOS BLOCK M101     MODEL: MIXER                                             TIME =      0.56
      KODE = 1  NTRIAL =   1  T = 301.5531  P = 1.500000E+06  V = 0.830343      Q =  0.00000    

      UOS BLOCK R101     MODEL: RPLUG                                             TIME =      0.56
        AT REACTOR EXIT :
        LENGTH =   4.5000      DIAMETER =  0.97800E-01  RESIDENCE TIME =   1.2997    
        PROCESS STREAM T =    623.15     P =   0.15000E+07 H =  -0.13388E+08 V =    1.0000    

      UOS BLOCK H101     MODEL: HEATX                                             TIME =      0.57
      SPECIFICATION: HOT OUTLET TEMP       323.15    
      FLOW TYPE:     COUNTERCURRENT  
      HOT:  TIN=  623.15  PIN=0.15000E+07   TOUT=  323.15  POUT=0.15000E+07
      COLD: TIN=  293.15  PIN=0.10132E+06   TOUT=  367.50  POUT=0.10132E+06
      AREA= 209.58           DUTY=0.96671E+07       FT=1.00000

      UOS BLOCK D101     MODEL: FLASH2                                            TIME =      0.58
      KODE = 2  NTRIAL =   1  T = 323.1500  P = 1.500000E+06  V = 0.399658      BETA = 0.484016      Q =  0.00000    

      UOS BLOCK S101     MODEL: FSPLIT                                            TIME =      0.58
      NO. TEMP ITER =    3     TEMP =  323.150    
      KODE = 1  NTRIAL =   2  T = 323.1500  P = 1.500000E+06  V =  1.00000      Q =  0.00000    
      SPLIT FRACTIONS:  0.80000D+00    0.20000D+00

      CALCULATOR BLOCK H2-FEED                                                    TIME =      0.58
      ---FLASH STREAM FEED    :
      KODE = 2  NTRIAL =   1  T = 298.1500  P = 1.500000E+06  V = 0.770180      Q =-8.002141E-06

      CONVERGENCE BLOCK $OLVER01  METHOD: WEGSTEIN                                TIME =      0.58
      ITER   1 For Tear Streams: RECYCLE

  LOOP $OLVER01 ITER    1:     *** CONVERGED *** , MAX ERR/TOL    -0.22613E-01    TIME =      0.58

 SENSITIVITY BLOCK VL-HCF   ROW     7 EVALUATION BEGINS                           TIME =      0.59
      VARY VARIABLES:   311.22    

      CONVERGENCE BLOCK $OLVER01  METHOD: WEGSTEIN                                TIME =      0.59
      ITER   0 For Tear Streams: RECYCLE

      UOS BLOCK M101     MODEL: MIXER                                             TIME =      0.59
      KODE = 1  NTRIAL =   1  T = 301.5531  P = 1.500000E+06  V = 0.830343      Q =  0.00000    

      UOS BLOCK R101     MODEL: RPLUG                                             TIME =      0.59
        AT REACTOR EXIT :
        LENGTH =   4.5000      DIAMETER =  0.97800E-01  RESIDENCE TIME =   1.2997    
        PROCESS STREAM T =    623.15     P =   0.15000E+07 H =  -0.13388E+08 V =    1.0000    

      UOS BLOCK H101     MODEL: HEATX                                             TIME =      0.60
      SPECIFICATION: HOT OUTLET TEMP       323.15    
      FLOW TYPE:     COUNTERCURRENT  
      HOT:  TIN=  623.15  PIN=0.15000E+07   TOUT=  323.15  POUT=0.15000E+07
      COLD: TIN=  293.15  PIN=0.10132E+06   TOUT=  367.50  POUT=0.10132E+06
      AREA= 208.63           DUTY=0.96671E+07       FT=1.00000

      UOS BLOCK D101     MODEL: FLASH2                                            TIME =      0.61
      KODE = 2  NTRIAL =   1  T = 323.1500  P = 1.500000E+06  V = 0.399658      BETA = 0.484016      Q =  0.00000    

      UOS BLOCK S101     MODEL: FSPLIT                                            TIME =      0.61
      NO. TEMP ITER =    3     TEMP =  323.150    
      KODE = 1  NTRIAL =   2  T = 323.1500  P = 1.500000E+06  V =  1.00000      Q =  0.00000    
      SPLIT FRACTIONS:  0.80000D+00    0.20000D+00

      CALCULATOR BLOCK H2-FEED                                                    TIME =      0.61
      ---FLASH STREAM FEED    :
      KODE = 2  NTRIAL =   1  T = 298.1500  P = 1.500000E+06  V = 0.770180      Q = 2.592196E-06

      CONVERGENCE BLOCK $OLVER01  METHOD: WEGSTEIN                                TIME =      0.61
      ITER   1 For Tear Streams: RECYCLE

  LOOP $OLVER01 ITER    1:     *** CONVERGED *** , MAX ERR/TOL    -0.22587E-01    TIME =      0.61

 SENSITIVITY BLOCK VL-HCF   ROW     8 EVALUATION BEGINS                           TIME =      0.61
      VARY VARIABLES:   321.43    

      CONVERGENCE BLOCK $OLVER01  METHOD: WEGSTEIN                                TIME =      0.61
      ITER   0 For Tear Streams: RECYCLE

      UOS BLOCK M101     MODEL: MIXER                                             TIME =      0.61
      KODE = 1  NTRIAL =   1  T = 301.5531  P = 1.500000E+06  V = 0.830343      Q =  0.00000    

      UOS BLOCK R101     MODEL: RPLUG                                             TIME =      0.62
        AT REACTOR EXIT :
        LENGTH =   4.5000      DIAMETER =  0.97800E-01  RESIDENCE TIME =   1.2997    
        PROCESS STREAM T =    623.15     P =   0.15000E+07 H =  -0.13388E+08 V =    1.0000    

      UOS BLOCK H101     MODEL: HEATX                                             TIME =      0.63
      SPECIFICATION: HOT OUTLET TEMP       323.15    
      FLOW TYPE:     COUNTERCURRENT  
      HOT:  TIN=  623.15  PIN=0.15000E+07   TOUT=  323.15  POUT=0.15000E+07
      COLD: TIN=  293.15  PIN=0.10132E+06   TOUT=  367.50  POUT=0.10132E+06
      AREA= 207.73           DUTY=0.96671E+07       FT=1.00000

      UOS BLOCK D101     MODEL: FLASH2                                            TIME =      0.63
      KODE = 2  NTRIAL =   1  T = 323.1500  P = 1.500000E+06  V = 0.399658      BETA = 0.484016      Q =  0.00000    

      UOS BLOCK S101     MODEL: FSPLIT                                            TIME =      0.63
      NO. TEMP ITER =    3     TEMP =  323.150    
      KODE = 1  NTRIAL =   2  T = 323.1500  P = 1.500000E+06  V =  1.00000      Q =  0.00000    
      SPLIT FRACTIONS:  0.80000D+00    0.20000D+00

      CALCULATOR BLOCK H2-FEED                                                    TIME =      0.64
      ---FLASH STREAM FEED    :
      KODE = 2  NTRIAL =   1  T = 298.1500  P = 1.500000E+06  V = 0.770180      Q =-8.390171E-07

      CONVERGENCE BLOCK $OLVER01  METHOD: WEGSTEIN                                TIME =      0.64
      ITER   1 For Tear Streams: RECYCLE

  LOOP $OLVER01 ITER    1:     *** CONVERGED *** , MAX ERR/TOL    -0.22595E-01    TIME =      0.64

 SENSITIVITY BLOCK VL-HCF   ROW     9 EVALUATION BEGINS                           TIME =      0.64
      VARY VARIABLES:   331.63    

      CONVERGENCE BLOCK $OLVER01  METHOD: WEGSTEIN                                TIME =      0.64
      ITER   0 For Tear Streams: RECYCLE

      UOS BLOCK M101     MODEL: MIXER                                             TIME =      0.64
      KODE = 1  NTRIAL =   1  T = 301.5531  P = 1.500000E+06  V = 0.830343      Q =  0.00000    

      UOS BLOCK R101     MODEL: RPLUG                                             TIME =      0.64
        AT REACTOR EXIT :
        LENGTH =   4.5000      DIAMETER =  0.97800E-01  RESIDENCE TIME =   1.2997    
        PROCESS STREAM T =    623.15     P =   0.15000E+07 H =  -0.13388E+08 V =    1.0000    

      UOS BLOCK H101     MODEL: HEATX                                             TIME =      0.65
      SPECIFICATION: HOT OUTLET TEMP       323.15    
      FLOW TYPE:     COUNTERCURRENT  
      HOT:  TIN=  623.15  PIN=0.15000E+07   TOUT=  323.15  POUT=0.15000E+07
      COLD: TIN=  293.15  PIN=0.10132E+06   TOUT=  367.50  POUT=0.10132E+06
      AREA= 206.89           DUTY=0.96671E+07       FT=1.00000

      UOS BLOCK D101     MODEL: FLASH2                                            TIME =      0.66
      KODE = 2  NTRIAL =   1  T = 323.1500  P = 1.500000E+06  V = 0.399658      BETA = 0.484016      Q =  0.00000    

      UOS BLOCK S101     MODEL: FSPLIT                                            TIME =      0.66
      NO. TEMP ITER =    3     TEMP =  323.150    
      KODE = 1  NTRIAL =   2  T = 323.1500  P = 1.500000E+06  V =  1.00000      Q =  0.00000    
      SPLIT FRACTIONS:  0.80000D+00    0.20000D+00

      CALCULATOR BLOCK H2-FEED                                                    TIME =      0.66
      ---FLASH STREAM FEED    :
      KODE = 2  NTRIAL =   1  T = 298.1500  P = 1.500000E+06  V = 0.770180      Q = 2.711448E-07

      CONVERGENCE BLOCK $OLVER01  METHOD: WEGSTEIN                                TIME =      0.66
      ITER   1 For Tear Streams: RECYCLE

  LOOP $OLVER01 ITER    1:     *** CONVERGED *** , MAX ERR/TOL    -0.22592E-01    TIME =      0.66

 SENSITIVITY BLOCK VL-HCF   ROW    10 EVALUATION BEGINS                           TIME =      0.68
      VARY VARIABLES:   341.84    

      CONVERGENCE BLOCK $OLVER01  METHOD: WEGSTEIN                                TIME =      0.68
      ITER   0 For Tear Streams: RECYCLE

      UOS BLOCK M101     MODEL: MIXER                                             TIME =      0.68
      KODE = 1  NTRIAL =   1  T = 301.5531  P = 1.500000E+06  V = 0.830343      Q =  0.00000    

      UOS BLOCK R101     MODEL: RPLUG                                             TIME =      0.69
        AT REACTOR EXIT :
        LENGTH =   4.5000      DIAMETER =  0.97800E-01  RESIDENCE TIME =   1.2997    
        PROCESS STREAM T =    623.15     P =   0.15000E+07 H =  -0.13388E+08 V =    1.0000    

      UOS BLOCK H101     MODEL: HEATX                                             TIME =      0.69
      SPECIFICATION: HOT OUTLET TEMP       323.15    
      FLOW TYPE:     COUNTERCURRENT  
      HOT:  TIN=  623.15  PIN=0.15000E+07   TOUT=  323.15  POUT=0.15000E+07
      COLD: TIN=  293.15  PIN=0.10132E+06   TOUT=  367.50  POUT=0.10132E+06
      AREA= 206.09           DUTY=0.96671E+07       FT=1.00000

      UOS BLOCK D101     MODEL: FLASH2                                            TIME =      0.70
      KODE = 2  NTRIAL =   1  T = 323.1500  P = 1.500000E+06  V = 0.399658      BETA = 0.484016      Q =  0.00000    

      UOS BLOCK S101     MODEL: FSPLIT                                            TIME =      0.70
      NO. TEMP ITER =    3     TEMP =  323.150    
      KODE = 1  NTRIAL =   2  T = 323.1500  P = 1.500000E+06  V =  1.00000      Q =  0.00000    
      SPLIT FRACTIONS:  0.80000D+00    0.20000D+00

      CALCULATOR BLOCK H2-FEED                                                    TIME =      0.70
      ---FLASH STREAM FEED    :
      KODE = 2  NTRIAL =   1  T = 298.1500  P = 1.500000E+06  V = 0.770180      Q =-8.756491E-08

      CONVERGENCE BLOCK $OLVER01  METHOD: WEGSTEIN                                TIME =      0.70
      ITER   1 For Tear Streams: RECYCLE

  LOOP $OLVER01 ITER    1:     *** CONVERGED *** , MAX ERR/TOL    -0.22593E-01    TIME =      0.70

 SENSITIVITY BLOCK VL-HCF   ROW    11 EVALUATION BEGINS                           TIME =      0.71
      VARY VARIABLES:   352.04    

      CONVERGENCE BLOCK $OLVER01  METHOD: WEGSTEIN                                TIME =      0.71
      ITER   0 For Tear Streams: RECYCLE

      UOS BLOCK M101     MODEL: MIXER                                             TIME =      0.71
      KODE = 1  NTRIAL =   1  T = 301.5531  P = 1.500000E+06  V = 0.830343      Q =  0.00000    

      UOS BLOCK R101     MODEL: RPLUG                                             TIME =      0.71
        AT REACTOR EXIT :
        LENGTH =   4.5000      DIAMETER =  0.97800E-01  RESIDENCE TIME =   1.2997    
        PROCESS STREAM T =    623.15     P =   0.15000E+07 H =  -0.13388E+08 V =    1.0000    

      UOS BLOCK H101     MODEL: HEATX                                             TIME =      0.72
      SPECIFICATION: HOT OUTLET TEMP       323.15    
      FLOW TYPE:     COUNTERCURRENT  
      HOT:  TIN=  623.15  PIN=0.15000E+07   TOUT=  323.15  POUT=0.15000E+07
      COLD: TIN=  293.15  PIN=0.10132E+06   TOUT=  367.50  POUT=0.10132E+06
      AREA= 205.35           DUTY=0.96671E+07       FT=1.00000

      UOS BLOCK D101     MODEL: FLASH2                                            TIME =      0.73
      KODE = 2  NTRIAL =   1  T = 323.1500  P = 1.500000E+06  V = 0.399658      BETA = 0.484016      Q = 3.220702E-09

      UOS BLOCK S101     MODEL: FSPLIT                                            TIME =      0.73
      NO. TEMP ITER =    3     TEMP =  323.150    
      KODE = 1  NTRIAL =   2  T = 323.1500  P = 1.500000E+06  V =  1.00000      Q =  0.00000    
      SPLIT FRACTIONS:  0.80000D+00    0.20000D+00

      CALCULATOR BLOCK H2-FEED                                                    TIME =      0.74
      ---FLASH STREAM FEED    :
      KODE = 2  NTRIAL =   1  T = 298.1500  P = 1.500000E+06  V = 0.770180      Q = 2.992935E-08

      CONVERGENCE BLOCK $OLVER01  METHOD: WEGSTEIN                                TIME =      0.74
      ITER   1 For Tear Streams: RECYCLE

  LOOP $OLVER01 ITER    1:     *** CONVERGED *** , MAX ERR/TOL    -0.22593E-01    TIME =      0.74

 SENSITIVITY BLOCK VL-HCF   ROW    12 EVALUATION BEGINS                           TIME =      0.74
      VARY VARIABLES:   362.24    

      CONVERGENCE BLOCK $OLVER01  METHOD: WEGSTEIN                                TIME =      0.74
      ITER   0 For Tear Streams: RECYCLE

      UOS BLOCK M101     MODEL: MIXER                                             TIME =      0.74
      KODE = 1  NTRIAL =   1  T = 301.5531  P = 1.500000E+06  V = 0.830343      Q =  0.00000    

      UOS BLOCK R101     MODEL: RPLUG                                             TIME =      0.75
        AT REACTOR EXIT :
        LENGTH =   4.5000      DIAMETER =  0.97800E-01  RESIDENCE TIME =   1.2997    
        PROCESS STREAM T =    623.15     P =   0.15000E+07 H =  -0.13388E+08 V =    1.0000    

      UOS BLOCK H101     MODEL: HEATX                                             TIME =      0.75
      SPECIFICATION: HOT OUTLET TEMP       323.15    
      FLOW TYPE:     COUNTERCURRENT  
      HOT:  TIN=  623.15  PIN=0.15000E+07   TOUT=  323.15  POUT=0.15000E+07
      COLD: TIN=  293.15  PIN=0.10132E+06   TOUT=  367.50  POUT=0.10132E+06
      AREA= 204.64           DUTY=0.96671E+07       FT=1.00000

      UOS BLOCK D101     MODEL: FLASH2                                            TIME =      0.76
      KODE = 2  NTRIAL =   1  T = 323.1500  P = 1.500000E+06  V = 0.399658      BETA = 0.484016      Q =  0.00000    

      UOS BLOCK S101     MODEL: FSPLIT                                            TIME =      0.76
      NO. TEMP ITER =    3     TEMP =  323.150    
      KODE = 1  NTRIAL =   2  T = 323.1500  P = 1.500000E+06  V =  1.00000      Q =  0.00000    
      SPLIT FRACTIONS:  0.80000D+00    0.20000D+00

      CALCULATOR BLOCK H2-FEED                                                    TIME =      0.76
      ---FLASH STREAM FEED    :
      KODE = 2  NTRIAL =   1  T = 298.1500  P = 1.500000E+06  V = 0.770180      Q =-1.139218E-08

      CONVERGENCE BLOCK $OLVER01  METHOD: WEGSTEIN                                TIME =      0.77
      ITER   1 For Tear Streams: RECYCLE

  LOOP $OLVER01 ITER    1:     *** CONVERGED *** , MAX ERR/TOL    -0.22593E-01    TIME =      0.77

 SENSITIVITY BLOCK VL-HCF   ROW    13 EVALUATION BEGINS                           TIME =      0.77
      VARY VARIABLES:   372.45    

      CONVERGENCE BLOCK $OLVER01  METHOD: WEGSTEIN                                TIME =      0.77
      ITER   0 For Tear Streams: RECYCLE

      UOS BLOCK M101     MODEL: MIXER                                             TIME =      0.77
      KODE = 1  NTRIAL =   1  T = 301.5531  P = 1.500000E+06  V = 0.830343      Q =  0.00000    

      UOS BLOCK R101     MODEL: RPLUG                                             TIME =      0.78
        AT REACTOR EXIT :
        LENGTH =   4.5000      DIAMETER =  0.97800E-01  RESIDENCE TIME =   1.2997    
        PROCESS STREAM T =    623.15     P =   0.15000E+07 H =  -0.13388E+08 V =    1.0000    

      UOS BLOCK H101     MODEL: HEATX                                             TIME =      0.79
      SPECIFICATION: HOT OUTLET TEMP       323.15    
      FLOW TYPE:     COUNTERCURRENT  
      HOT:  TIN=  623.15  PIN=0.15000E+07   TOUT=  323.15  POUT=0.15000E+07
      COLD: TIN=  293.15  PIN=0.10132E+06   TOUT=  367.50  POUT=0.10132E+06
      AREA= 203.98           DUTY=0.96671E+07       FT=1.00000

      UOS BLOCK D101     MODEL: FLASH2                                            TIME =      0.79
      KODE = 2  NTRIAL =   1  T = 323.1500  P = 1.500000E+06  V = 0.399658      BETA = 0.484016      Q =  0.00000    

      UOS BLOCK S101     MODEL: FSPLIT                                            TIME =      0.80
      NO. TEMP ITER =    3     TEMP =  323.150    
      KODE = 1  NTRIAL =   2  T = 323.1500  P = 1.500000E+06  V =  1.00000      Q =  0.00000    
      SPLIT FRACTIONS:  0.80000D+00    0.20000D+00

      CALCULATOR BLOCK H2-FEED                                                    TIME =      0.80
      ---FLASH STREAM FEED    :
      KODE = 2  NTRIAL =   1  T = 298.1500  P = 1.500000E+06  V = 0.770180      Q = 4.800198E-09

      CONVERGENCE BLOCK $OLVER01  METHOD: WEGSTEIN                                TIME =      0.80
      ITER   1 For Tear Streams: RECYCLE

  LOOP $OLVER01 ITER    1:     *** CONVERGED *** , MAX ERR/TOL    -0.22593E-01    TIME =      0.80

 SENSITIVITY BLOCK VL-HCF   ROW    14 EVALUATION BEGINS                           TIME =      0.81
      VARY VARIABLES:   382.65    

      CONVERGENCE BLOCK $OLVER01  METHOD: WEGSTEIN                                TIME =      0.81
      ITER   0 For Tear Streams: RECYCLE

      UOS BLOCK M101     MODEL: MIXER                                             TIME =      0.81
      KODE = 1  NTRIAL =   1  T = 301.5531  P = 1.500000E+06  V = 0.830343      Q =  0.00000    

      UOS BLOCK R101     MODEL: RPLUG                                             TIME =      0.81
        AT REACTOR EXIT :
        LENGTH =   4.5000      DIAMETER =  0.97800E-01  RESIDENCE TIME =   1.2997    
        PROCESS STREAM T =    623.15     P =   0.15000E+07 H =  -0.13388E+08 V =    1.0000    

      UOS BLOCK H101     MODEL: HEATX                                             TIME =      0.82
      SPECIFICATION: HOT OUTLET TEMP       323.15    
      FLOW TYPE:     COUNTERCURRENT  
      HOT:  TIN=  623.15  PIN=0.15000E+07   TOUT=  323.15  POUT=0.15000E+07
      COLD: TIN=  293.15  PIN=0.10132E+06   TOUT=  367.50  POUT=0.10132E+06
      AREA= 203.35           DUTY=0.96671E+07       FT=1.00000

      UOS BLOCK D101     MODEL: FLASH2                                            TIME =      0.83
      KODE = 2  NTRIAL =   1  T = 323.1500  P = 1.500000E+06  V = 0.399658      BETA = 0.484016      Q =  0.00000    

      UOS BLOCK S101     MODEL: FSPLIT                                            TIME =      0.83
      NO. TEMP ITER =    3     TEMP =  323.150    
      KODE = 1  NTRIAL =   2  T = 323.1500  P = 1.500000E+06  V =  1.00000      Q =  0.00000    
      SPLIT FRACTIONS:  0.80000D+00    0.20000D+00

      CALCULATOR BLOCK H2-FEED                                                    TIME =      0.83
      ---FLASH STREAM FEED    :
      KODE = 2  NTRIAL =   1  T = 298.1500  P = 1.500000E+06  V = 0.770180      Q =-1.382546E-09

      CONVERGENCE BLOCK $OLVER01  METHOD: WEGSTEIN                                TIME =      0.83
      ITER   1 For Tear Streams: RECYCLE

  LOOP $OLVER01 ITER    1:     *** CONVERGED *** , MAX ERR/TOL    -0.22593E-01    TIME =      0.83

 SENSITIVITY BLOCK VL-HCF   ROW    15 EVALUATION BEGINS                           TIME =      0.84
      VARY VARIABLES:   392.86    

      CONVERGENCE BLOCK $OLVER01  METHOD: WEGSTEIN                                TIME =      0.84
      ITER   0 For Tear Streams: RECYCLE

      UOS BLOCK M101     MODEL: MIXER                                             TIME =      0.84
      KODE = 1  NTRIAL =   1  T = 301.5531  P = 1.500000E+06  V = 0.830343      Q =  0.00000    

      UOS BLOCK R101     MODEL: RPLUG                                             TIME =      0.84
        AT REACTOR EXIT :
        LENGTH =   4.5000      DIAMETER =  0.97800E-01  RESIDENCE TIME =   1.2997    
        PROCESS STREAM T =    623.15     P =   0.15000E+07 H =  -0.13388E+08 V =    1.0000    

      UOS BLOCK H101     MODEL: HEATX                                             TIME =      0.85
      SPECIFICATION: HOT OUTLET TEMP       323.15    
      FLOW TYPE:     COUNTERCURRENT  
      HOT:  TIN=  623.15  PIN=0.15000E+07   TOUT=  323.15  POUT=0.15000E+07
      COLD: TIN=  293.15  PIN=0.10132E+06   TOUT=  367.50  POUT=0.10132E+06
      AREA= 202.75           DUTY=0.96671E+07       FT=1.00000

      UOS BLOCK D101     MODEL: FLASH2                                            TIME =      0.86
      KODE = 2  NTRIAL =   1  T = 323.1500  P = 1.500000E+06  V = 0.399658      BETA = 0.484016      Q =  0.00000    

      UOS BLOCK S101     MODEL: FSPLIT                                            TIME =      0.86
      NO. TEMP ITER =    3     TEMP =  323.150    
      KODE = 1  NTRIAL =   2  T = 323.1500  P = 1.500000E+06  V =  1.00000      Q =  0.00000    
      SPLIT FRACTIONS:  0.80000D+00    0.20000D+00

      CALCULATOR BLOCK H2-FEED                                                    TIME =      0.86
      ---FLASH STREAM FEED    :
      KODE = 2  NTRIAL =   1  T = 298.1500  P = 1.500000E+06  V = 0.770180      Q =-4.534749E-10

      CONVERGENCE BLOCK $OLVER01  METHOD: WEGSTEIN                                TIME =      0.86
      ITER   1 For Tear Streams: RECYCLE

  LOOP $OLVER01 ITER    1:     *** CONVERGED *** , MAX ERR/TOL    -0.22593E-01    TIME =      0.86

 SENSITIVITY BLOCK VL-HCF   ROW    16 EVALUATION BEGINS                           TIME =      0.87
      VARY VARIABLES:   403.06    

      CONVERGENCE BLOCK $OLVER01  METHOD: WEGSTEIN                                TIME =      0.87
      ITER   0 For Tear Streams: RECYCLE

      UOS BLOCK M101     MODEL: MIXER                                             TIME =      0.87
      KODE = 1  NTRIAL =   1  T = 301.5531  P = 1.500000E+06  V = 0.830343      Q =  0.00000    

      UOS BLOCK R101     MODEL: RPLUG                                             TIME =      0.87
        AT REACTOR EXIT :
        LENGTH =   4.5000      DIAMETER =  0.97800E-01  RESIDENCE TIME =   1.2997    
        PROCESS STREAM T =    623.15     P =   0.15000E+07 H =  -0.13388E+08 V =    1.0000    

      UOS BLOCK H101     MODEL: HEATX                                             TIME =      0.88
      SPECIFICATION: HOT OUTLET TEMP       323.15    
      FLOW TYPE:     COUNTERCURRENT  
      HOT:  TIN=  623.15  PIN=0.15000E+07   TOUT=  323.15  POUT=0.15000E+07
      COLD: TIN=  293.15  PIN=0.10132E+06   TOUT=  367.50  POUT=0.10132E+06
      AREA= 202.18           DUTY=0.96671E+07       FT=1.00000

      UOS BLOCK D101     MODEL: FLASH2                                            TIME =      0.89
      KODE = 2  NTRIAL =   1  T = 323.1500  P = 1.500000E+06  V = 0.399658      BETA = 0.484016      Q =-3.220702E-09

      UOS BLOCK S101     MODEL: FSPLIT                                            TIME =      0.89
      NO. TEMP ITER =    3     TEMP =  323.150    
      KODE = 1  NTRIAL =   2  T = 323.1500  P = 1.500000E+06  V =  1.00000      Q =  0.00000    
      SPLIT FRACTIONS:  0.80000D+00    0.20000D+00

      CALCULATOR BLOCK H2-FEED                                                    TIME =      0.89
      ---FLASH STREAM FEED    :
      KODE = 2  NTRIAL =   1  T = 298.1500  P = 1.500000E+06  V = 0.770180      Q = 1.305123E-09

      CONVERGENCE BLOCK $OLVER01  METHOD: WEGSTEIN                                TIME =      0.89
      ITER   1 For Tear Streams: RECYCLE

  LOOP $OLVER01 ITER    1:     *** CONVERGED *** , MAX ERR/TOL    -0.22593E-01    TIME =      0.89

 SENSITIVITY BLOCK VL-HCF   ROW    17 EVALUATION BEGINS                           TIME =      0.90
      VARY VARIABLES:   413.27    

      CONVERGENCE BLOCK $OLVER01  METHOD: WEGSTEIN                                TIME =      0.90
      ITER   0 For Tear Streams: RECYCLE

      UOS BLOCK M101     MODEL: MIXER                                             TIME =      0.90
      KODE = 1  NTRIAL =   1  T = 301.5531  P = 1.500000E+06  V = 0.830343      Q =  0.00000    

      UOS BLOCK R101     MODEL: RPLUG                                             TIME =      0.91
        AT REACTOR EXIT :
        LENGTH =   4.5000      DIAMETER =  0.97800E-01  RESIDENCE TIME =   1.2997    
        PROCESS STREAM T =    623.15     P =   0.15000E+07 H =  -0.13388E+08 V =    1.0000    

      UOS BLOCK H101     MODEL: HEATX                                             TIME =      0.91
      SPECIFICATION: HOT OUTLET TEMP       323.15    
      FLOW TYPE:     COUNTERCURRENT  
      HOT:  TIN=  623.15  PIN=0.15000E+07   TOUT=  323.15  POUT=0.15000E+07
      COLD: TIN=  293.15  PIN=0.10132E+06   TOUT=  367.50  POUT=0.10132E+06
      AREA= 201.65           DUTY=0.96671E+07       FT=1.00000

      UOS BLOCK D101     MODEL: FLASH2                                            TIME =      0.92
      KODE = 2  NTRIAL =   1  T = 323.1500  P = 1.500000E+06  V = 0.399658      BETA = 0.484016      Q =  0.00000    

      UOS BLOCK S101     MODEL: FSPLIT                                            TIME =      0.92
      NO. TEMP ITER =    3     TEMP =  323.150    
      KODE = 1  NTRIAL =   2  T = 323.1500  P = 1.500000E+06  V =  1.00000      Q =  0.00000    
      SPLIT FRACTIONS:  0.80000D+00    0.20000D+00

      CALCULATOR BLOCK H2-FEED                                                    TIME =      0.92
      ---FLASH STREAM FEED    :
      KODE = 2  NTRIAL =   1  T = 298.1500  P = 1.500000E+06  V = 0.770180      Q =-3.760524E-10

      CONVERGENCE BLOCK $OLVER01  METHOD: WEGSTEIN                                TIME =      0.92
      ITER   1 For Tear Streams: RECYCLE

  LOOP $OLVER01 ITER    1:     *** CONVERGED *** , MAX ERR/TOL    -0.22593E-01    TIME =      0.92

 SENSITIVITY BLOCK VL-HCF   ROW    18 EVALUATION BEGINS                           TIME =      0.93
      VARY VARIABLES:   423.47    

      CONVERGENCE BLOCK $OLVER01  METHOD: WEGSTEIN                                TIME =      0.93
      ITER   0 For Tear Streams: RECYCLE

      UOS BLOCK M101     MODEL: MIXER                                             TIME =      0.93
      KODE = 1  NTRIAL =   1  T = 301.5531  P = 1.500000E+06  V = 0.830343      Q =  0.00000    

      UOS BLOCK R101     MODEL: RPLUG                                             TIME =      0.93
        AT REACTOR EXIT :
        LENGTH =   4.5000      DIAMETER =  0.97800E-01  RESIDENCE TIME =   1.2997    
        PROCESS STREAM T =    623.15     P =   0.15000E+07 H =  -0.13388E+08 V =    1.0000    

      UOS BLOCK H101     MODEL: HEATX                                             TIME =      0.94
      SPECIFICATION: HOT OUTLET TEMP       323.15    
      FLOW TYPE:     COUNTERCURRENT  
      HOT:  TIN=  623.15  PIN=0.15000E+07   TOUT=  323.15  POUT=0.15000E+07
      COLD: TIN=  293.15  PIN=0.10132E+06   TOUT=  367.50  POUT=0.10132E+06
      AREA= 201.13           DUTY=0.96671E+07       FT=1.00000

      UOS BLOCK D101     MODEL: FLASH2                                            TIME =      0.95
      KODE = 2  NTRIAL =   1  T = 323.1500  P = 1.500000E+06  V = 0.399658      BETA = 0.484016      Q =-3.220702E-09

      UOS BLOCK S101     MODEL: FSPLIT                                            TIME =      0.95
      NO. TEMP ITER =    3     TEMP =  323.150    
      KODE = 1  NTRIAL =   2  T = 323.1500  P = 1.500000E+06  V =  1.00000      Q =  0.00000    
      SPLIT FRACTIONS:  0.80000D+00    0.20000D+00

      CALCULATOR BLOCK H2-FEED                                                    TIME =      0.96
      ---FLASH STREAM FEED    :
      KODE = 2  NTRIAL =   1  T = 298.1500  P = 1.500000E+06  V = 0.770180      Q =-6.525615E-10

      CONVERGENCE BLOCK $OLVER01  METHOD: WEGSTEIN                                TIME =      0.96
      ITER   1 For Tear Streams: RECYCLE

  LOOP $OLVER01 ITER    1:     *** CONVERGED *** , MAX ERR/TOL    -0.22593E-01    TIME =      0.96

 SENSITIVITY BLOCK VL-HCF   ROW    19 EVALUATION BEGINS                           TIME =      0.97
      VARY VARIABLES:   433.67    

      CONVERGENCE BLOCK $OLVER01  METHOD: WEGSTEIN                                TIME =      0.97
      ITER   0 For Tear Streams: RECYCLE

      UOS BLOCK M101     MODEL: MIXER                                             TIME =      0.97
      KODE = 1  NTRIAL =   1  T = 301.5531  P = 1.500000E+06  V = 0.830343      Q =  0.00000    

      UOS BLOCK R101     MODEL: RPLUG                                             TIME =      0.97
        AT REACTOR EXIT :
        LENGTH =   4.5000      DIAMETER =  0.97800E-01  RESIDENCE TIME =   1.2997    
        PROCESS STREAM T =    623.15     P =   0.15000E+07 H =  -0.13388E+08 V =    1.0000    

      UOS BLOCK H101     MODEL: HEATX                                             TIME =      0.98
      SPECIFICATION: HOT OUTLET TEMP       323.15    
      FLOW TYPE:     COUNTERCURRENT  
      HOT:  TIN=  623.15  PIN=0.15000E+07   TOUT=  323.15  POUT=0.15000E+07
      COLD: TIN=  293.15  PIN=0.10132E+06   TOUT=  367.50  POUT=0.10132E+06
      AREA= 200.64           DUTY=0.96671E+07       FT=1.00000

      UOS BLOCK D101     MODEL: FLASH2                                            TIME =      0.99
      KODE = 2  NTRIAL =   1  T = 323.1500  P = 1.500000E+06  V = 0.399658      BETA = 0.484016      Q =  0.00000    

      UOS BLOCK S101     MODEL: FSPLIT                                            TIME =      1.00
      NO. TEMP ITER =    3     TEMP =  323.150    
      KODE = 1  NTRIAL =   2  T = 323.1500  P = 1.500000E+06  V =  1.00000      Q =  0.00000    
      SPLIT FRACTIONS:  0.80000D+00    0.20000D+00

      CALCULATOR BLOCK H2-FEED                                                    TIME =      1.01
      ---FLASH STREAM FEED    :
      KODE = 2  NTRIAL =   1  T = 298.1500  P = 1.500000E+06  V = 0.770180      Q =-1.216640E-10

      CONVERGENCE BLOCK $OLVER01  METHOD: WEGSTEIN                                TIME =      1.02
      ITER   1 For Tear Streams: RECYCLE

  LOOP $OLVER01 ITER    1:     *** CONVERGED *** , MAX ERR/TOL    -0.22593E-01    TIME =      1.02

 SENSITIVITY BLOCK VL-HCF   ROW    20 EVALUATION BEGINS                           TIME =      1.03
      VARY VARIABLES:   443.88    

      CONVERGENCE BLOCK $OLVER01  METHOD: WEGSTEIN                                TIME =      1.03
      ITER   0 For Tear Streams: RECYCLE

      UOS BLOCK M101     MODEL: MIXER                                             TIME =      1.03
      KODE = 1  NTRIAL =   1  T = 301.5531  P = 1.500000E+06  V = 0.830343      Q =  0.00000    

      UOS BLOCK R101     MODEL: RPLUG                                             TIME =      1.04
        AT REACTOR EXIT :
        LENGTH =   4.5000      DIAMETER =  0.97800E-01  RESIDENCE TIME =   1.2997    
        PROCESS STREAM T =    623.15     P =   0.15000E+07 H =  -0.13388E+08 V =    1.0000    

      UOS BLOCK H101     MODEL: HEATX                                             TIME =      1.05
      SPECIFICATION: HOT OUTLET TEMP       323.15    
      FLOW TYPE:     COUNTERCURRENT  
      HOT:  TIN=  623.15  PIN=0.15000E+07   TOUT=  323.15  POUT=0.15000E+07
      COLD: TIN=  293.15  PIN=0.10132E+06   TOUT=  367.50  POUT=0.10132E+06
      AREA= 200.18           DUTY=0.96671E+07       FT=1.00000

      UOS BLOCK D101     MODEL: FLASH2                                            TIME =      1.06
      KODE = 2  NTRIAL =   1  T = 323.1500  P = 1.500000E+06  V = 0.399658      BETA = 0.484016      Q =  0.00000    

      UOS BLOCK S101     MODEL: FSPLIT                                            TIME =      1.06
      NO. TEMP ITER =    3     TEMP =  323.150    
      KODE = 1  NTRIAL =   2  T = 323.1500  P = 1.500000E+06  V =  1.00000      Q =  0.00000    
      SPLIT FRACTIONS:  0.80000D+00    0.20000D+00

      CALCULATOR BLOCK H2-FEED                                                    TIME =      1.07
      ---FLASH STREAM FEED    :
      KODE = 2  NTRIAL =   1  T = 298.1500  P = 1.500000E+06  V = 0.770180      Q = 1.437847E-10

      CONVERGENCE BLOCK $OLVER01  METHOD: WEGSTEIN                                TIME =      1.07
      ITER   1 For Tear Streams: RECYCLE

  LOOP $OLVER01 ITER    1:     *** CONVERGED *** , MAX ERR/TOL    -0.22593E-01    TIME =      1.08

 SENSITIVITY BLOCK VL-HCF   ROW    21 EVALUATION BEGINS                           TIME =      1.08
      VARY VARIABLES:   454.08    

      CONVERGENCE BLOCK $OLVER01  METHOD: WEGSTEIN                                TIME =      1.08
      ITER   0 For Tear Streams: RECYCLE

      UOS BLOCK M101     MODEL: MIXER                                             TIME =      1.09
      KODE = 1  NTRIAL =   1  T = 301.5531  P = 1.500000E+06  V = 0.830343      Q =  0.00000    

      UOS BLOCK R101     MODEL: RPLUG                                             TIME =      1.09
        AT REACTOR EXIT :
        LENGTH =   4.5000      DIAMETER =  0.97800E-01  RESIDENCE TIME =   1.2997    
        PROCESS STREAM T =    623.15     P =   0.15000E+07 H =  -0.13388E+08 V =    1.0000    

      UOS BLOCK H101     MODEL: HEATX                                             TIME =      1.10
      SPECIFICATION: HOT OUTLET TEMP       323.15    
      FLOW TYPE:     COUNTERCURRENT  
      HOT:  TIN=  623.15  PIN=0.15000E+07   TOUT=  323.15  POUT=0.15000E+07
      COLD: TIN=  293.15  PIN=0.10132E+06   TOUT=  367.50  POUT=0.10132E+06
      AREA= 199.73           DUTY=0.96671E+07       FT=1.00000

      UOS BLOCK D101     MODEL: FLASH2                                            TIME =      1.11
      KODE = 2  NTRIAL =   1  T = 323.1500  P = 1.500000E+06  V = 0.399658      BETA = 0.484016      Q =  0.00000    

      UOS BLOCK S101     MODEL: FSPLIT                                            TIME =      1.12
      NO. TEMP ITER =    3     TEMP =  323.150    
      KODE = 1  NTRIAL =   2  T = 323.1500  P = 1.500000E+06  V =  1.00000      Q =  0.00000    
      SPLIT FRACTIONS:  0.80000D+00    0.20000D+00

      CALCULATOR BLOCK H2-FEED                                                    TIME =      1.12
      ---FLASH STREAM FEED    :
      KODE = 2  NTRIAL =   1  T = 298.1500  P = 1.500000E+06  V = 0.770180      Q = 8.958895E-10

      CONVERGENCE BLOCK $OLVER01  METHOD: WEGSTEIN                                TIME =      1.13
      ITER   1 For Tear Streams: RECYCLE

  LOOP $OLVER01 ITER    1:     *** CONVERGED *** , MAX ERR/TOL    -0.22593E-01    TIME =      1.13

 SENSITIVITY BLOCK VL-HCF   ROW    22 EVALUATION BEGINS                           TIME =      1.13
      VARY VARIABLES:   464.29    

      CONVERGENCE BLOCK $OLVER01  METHOD: WEGSTEIN                                TIME =      1.13
      ITER   0 For Tear Streams: RECYCLE

      UOS BLOCK M101     MODEL: MIXER                                             TIME =      1.13
      KODE = 1  NTRIAL =   1  T = 301.5531  P = 1.500000E+06  V = 0.830343      Q =  0.00000    

      UOS BLOCK R101     MODEL: RPLUG                                             TIME =      1.13
        AT REACTOR EXIT :
[...]
      KODE = 3  NTRIAL =   2  T = 371.8387  P =  100000.      V =  0.00000      BETA = 0.175161      Q =  0.00000    
      KODE = 3  NTRIAL =   2  T = 371.8387  P =  100000.      V =  0.00000      BETA = 0.142595      Q =  0.00000    
      KODE = 3  NTRIAL =   2  T = 371.8387  P =  100000.      V =  0.00000      BETA = 0.110030      Q =  0.00000    
      KODE = 3  NTRIAL =   2  T = 371.8387  P =  100000.      V =  0.00000      BETA = 7.746390E-02  Q =  0.00000    
      KODE = 3  NTRIAL =   2  T = 371.8387  P =  100000.      V =  0.00000      BETA = 4.489827E-02  Q =  0.00000    
      KODE = 3  NTRIAL =   2  T = 371.8387  P =  100000.      V =  0.00000      BETA = 1.233264E-02  Q =  0.00000    
      KODE = 3  NTRIAL =   2  T = 372.7276  P =  100000.      V =  0.00000      BETA =  1.00000      Q =  0.00000    

 Results generated                                                                Time =      9.32

 Report Writer entered                                                            Time =      9.65

      BEGIN HEATX TQ-CURVE REPORT FOR BLOCK H101    

      BEGIN COLD-TQCURVE INLET   

      BEGIN HOT-TQCURVE  INLET   
      END HEATX TQ-CURVE REPORT FOR BLOCK H101    

      BEGIN CALCULATIONS FOR PROP-TABLE BINRY-1                                   TIME =     10.02
      KODE = 3  NTRIAL =   8  T = 596.3156  P = 1.500000E+06  V =  0.00000      BETA =  1.00000      Q =  0.00000    
      KODE = 3  NTRIAL =  11  T = 584.8493  P = 1.500000E+06  V =  0.00000      BETA =  1.00000      Q =  0.00000    
      KODE = 3  NTRIAL =  11  T = 574.2191  P = 1.500000E+06  V =  0.00000      BETA =  1.00000      Q =  0.00000    
      KODE = 3  NTRIAL =  11  T = 564.5782  P = 1.500000E+06  V =  0.00000      BETA =  1.00000      Q =  0.00000    
      KODE = 3  NTRIAL =  11  T = 555.9453  P = 1.500000E+06  V =  0.00000      BETA =  1.00000      Q =  0.00000    
      KODE = 3  NTRIAL =  11  T = 548.2589  P = 1.500000E+06  V =  0.00000      BETA =  1.00000      Q =  0.00000    
      KODE = 3  NTRIAL =  11  T = 541.4223  P = 1.500000E+06  V =  0.00000      BETA =  1.00000      Q =  0.00000    
      KODE = 3  NTRIAL =  11  T = 535.3309  P = 1.500000E+06  V =  0.00000      BETA =  1.00000      Q =  0.00000    
      KODE = 3  NTRIAL =  11  T = 529.8854  P = 1.500000E+06  V =  0.00000      BETA =  1.00000      Q =  0.00000    
      KODE = 3  NTRIAL =  11  T = 524.9978  P = 1.500000E+06  V =  0.00000      BETA =  1.00000      Q =  0.00000    
      KODE = 3  NTRIAL =  11  T = 520.5922  P = 1.500000E+06  V =  0.00000      BETA =  1.00000      Q =  0.00000    
      KODE = 3  NTRIAL =  11  T = 516.6040  P = 1.500000E+06  V =  0.00000      BETA =  1.00000      Q =  0.00000    
      KODE = 3  NTRIAL =  11  T = 512.9791  P = 1.500000E+06  V =  0.00000      BETA =  1.00000      Q =  0.00000    
      KODE = 3  NTRIAL =  10  T = 509.6717  P = 1.500000E+06  V =  0.00000      BETA =  1.00000      Q =  0.00000    
      KODE = 3  NTRIAL =  10  T = 506.6433  P = 1.500000E+06  V =  0.00000      BETA =  1.00000      Q =  0.00000    
      KODE = 3  NTRIAL =  10  T = 503.8613  P = 1.500000E+06  V =  0.00000      BETA =  1.00000      Q =  0.00000    
      KODE = 3  NTRIAL =   9  T = 501.2981  P = 1.500000E+06  V =  0.00000      BETA =  1.00000      Q =  0.00000    
      KODE = 3  NTRIAL =   9  T = 498.9301  P = 1.500000E+06  V =  0.00000      BETA =  1.00000      Q =  0.00000    
      KODE = 3  NTRIAL =   9  T = 496.7370  P = 1.500000E+06  V =  0.00000      BETA =  1.00000      Q =  0.00000    
      KODE = 3  NTRIAL =   9  T = 494.7014  P = 1.500000E+06  V =  0.00000      BETA =  1.00000      Q =  0.00000    
      KODE = 3  NTRIAL =   9  T = 492.8082  P = 1.500000E+06  V =  0.00000      BETA =  1.00000      Q =  0.00000    
      KODE = 3  NTRIAL =   9  T = 491.0443  P = 1.500000E+06  V =  0.00000      BETA =  1.00000      Q =  0.00000    
      KODE = 3  NTRIAL =   9  T = 489.3981  P = 1.500000E+06  V =  0.00000      BETA =  1.00000      Q =  0.00000    
      KODE = 3  NTRIAL =   9  T = 487.8596  P = 1.500000E+06  V =  0.00000      BETA =  1.00000      Q =  0.00000    
      KODE = 3  NTRIAL =   9  T = 486.4199  P = 1.500000E+06  V =  0.00000      BETA =  1.00000      Q =  0.00000    
      KODE = 3  NTRIAL =   9  T = 485.0711  P = 1.500000E+06  V =  0.00000      BETA =  1.00000      Q =  0.00000    
      KODE = 3  NTRIAL =   9  T = 483.8062  P = 1.500000E+06  V =  0.00000      BETA =  1.00000      Q =  0.00000    
      KODE = 3  NTRIAL =   9  T = 482.6190  P = 1.500000E+06  V =  0.00000      BETA =  1.00000      Q =  0.00000    
      KODE = 3  NTRIAL =   9  T = 481.5039  P = 1.500000E+06  V =  0.00000      BETA =  1.00000      Q =  0.00000    
      KODE = 3  NTRIAL =   9  T = 480.4558  P = 1.500000E+06  V =  0.00000      BETA =  1.00000      Q =  0.00000    
      KODE = 3  NTRIAL =   9  T = 479.4703  P = 1.500000E+06  V =  0.00000      BETA =  1.00000      Q =  0.00000    
      KODE = 3  NTRIAL =   9  T = 478.5433  P = 1.500000E+06  V =  0.00000      BETA =  1.00000      Q =  0.00000    
      KODE = 3  NTRIAL =   9  T = 477.6710  P = 1.500000E+06  V =  0.00000      BETA =  1.00000      Q =  0.00000    
      KODE = 3  NTRIAL =   9  T = 476.8501  P = 1.500000E+06  V =  0.00000      BETA =  1.00000      Q =  0.00000    
      KODE = 3  NTRIAL =   9  T = 476.0776  P = 1.500000E+06  V =  0.00000      BETA =  1.00000      Q =  0.00000    
      KODE = 3  NTRIAL =   9  T = 475.3506  P = 1.500000E+06  V =  0.00000      BETA =  1.00000      Q =  0.00000    
      KODE = 3  NTRIAL =   9  T = 474.6666  P = 1.500000E+06  V =  0.00000      BETA =  1.00000      Q =  0.00000    
      KODE = 3  NTRIAL =  28  T = 474.0232  P = 1.500000E+06  V =  0.00000      BETA =  1.00000      Q =  0.00000    
      KODE = 3  NTRIAL =  28  T = 473.4183  P = 1.500000E+06  V =  0.00000      BETA =  1.00000      Q =  0.00000    
      KODE = 3  NTRIAL =  12  T = 472.8499  P = 1.500000E+06  V =  0.00000      BETA =  1.00000      Q =  0.00000    
      KODE = 3  NTRIAL =  11  T = 472.3161  P = 1.500000E+06  V =  0.00000      BETA =  1.00000      Q =  0.00000    
      KODE = 3  NTRIAL =  11  T = 471.8153  P = 1.500000E+06  V =  0.00000      BETA =  1.00000      Q =  0.00000    
      KODE = 3  NTRIAL =  11  T = 471.3459  P = 1.500000E+06  V =  0.00000      BETA =  1.00000      Q =  0.00000    
      KODE = 3  NTRIAL =  11  T = 470.9063  P = 1.500000E+06  V =  0.00000      BETA =  1.00000      Q =  0.00000    
      KODE = 3  NTRIAL =  11  T = 470.4954  P = 1.500000E+06  V =  0.00000      BETA =  1.00000      Q =  0.00000    
      KODE = 3  NTRIAL =  11  T = 470.1117  P = 1.500000E+06  V =  0.00000      BETA =  1.00000      Q =  0.00000    
      KODE = 3  NTRIAL =  11  T = 469.7540  P = 1.500000E+06  V =  0.00000      BETA =  1.00000      Q =  0.00000    
      KODE = 3  NTRIAL =  11  T = 469.4214  P = 1.500000E+06  V =  0.00000      BETA =  1.00000      Q =  0.00000    
      KODE = 3  NTRIAL =  12  T = 469.1127  P = 1.500000E+06  V =  0.00000      BETA =  1.00000      Q =  0.00000    
      KODE = 3  NTRIAL =  13  T = 468.8270  P = 1.500000E+06  V =  0.00000      BETA =  1.00000      Q =  0.00000    
      KODE = 3  NTRIAL =  15  T = 468.6254  P = 1.500000E+06  V =  0.00000      BETA = 0.994869      Q =  0.00000    
      KODE = 3  NTRIAL =   2  T = 468.6254  P = 1.500000E+06  V =  0.00000      BETA = 0.973741      Q =  0.00000    
      KODE = 3  NTRIAL =   2  T = 468.6254  P = 1.500000E+06  V =  0.00000      BETA = 0.952612      Q =  0.00000    
      KODE = 3  NTRIAL =   2  T = 468.6254  P = 1.500000E+06  V =  0.00000      BETA = 0.931483      Q =  0.00000    
      KODE = 3  NTRIAL =   2  T = 468.6254  P = 1.500000E+06  V =  0.00000      BETA = 0.910355      Q =  0.00000    
      KODE = 3  NTRIAL =   2  T = 468.6254  P = 1.500000E+06  V =  0.00000      BETA = 0.889226      Q =  0.00000    
      KODE = 3  NTRIAL =   2  T = 468.6254  P = 1.500000E+06  V =  0.00000      BETA = 0.868097      Q =  0.00000    
      KODE = 3  NTRIAL =   2  T = 468.6254  P = 1.500000E+06  V =  0.00000      BETA = 0.846969      Q =  0.00000    
      KODE = 3  NTRIAL =   2  T = 468.6254  P = 1.500000E+06  V =  0.00000      BETA = 0.825840      Q =  0.00000    
      KODE = 3  NTRIAL =   2  T = 468.6254  P = 1.500000E+06  V =  0.00000      BETA = 0.804711      Q =  0.00000    
      KODE = 3  NTRIAL =   2  T = 468.6254  P = 1.500000E+06  V =  0.00000      BETA = 0.783583      Q =  0.00000    
      KODE = 3  NTRIAL =   2  T = 468.6254  P = 1.500000E+06  V =  0.00000      BETA = 0.762454      Q =  0.00000    
      KODE = 3  NTRIAL =   2  T = 468.6254  P = 1.500000E+06  V =  0.00000      BETA = 0.741325      Q =  0.00000    
      KODE = 3  NTRIAL =   2  T = 468.6254  P = 1.500000E+06  V =  0.00000      BETA = 0.720197      Q =  0.00000    
      KODE = 3  NTRIAL =   2  T = 468.6254  P = 1.500000E+06  V =  0.00000      BETA = 0.699068      Q =  0.00000    
      KODE = 3  NTRIAL =   2  T = 468.6254  P = 1.500000E+06  V =  0.00000      BETA = 0.677939      Q =  0.00000    
      KODE = 3  NTRIAL =   2  T = 468.6254  P = 1.500000E+06  V =  0.00000      BETA = 0.656811      Q =  0.00000    
      KODE = 3  NTRIAL =   2  T = 468.6254  P = 1.500000E+06  V =  0.00000      BETA = 0.635682      Q =  0.00000    
      KODE = 3  NTRIAL =   2  T = 468.6254  P = 1.500000E+06  V =  0.00000      BETA = 0.614553      Q =  0.00000    
      KODE = 3  NTRIAL =   2  T = 468.6254  P = 1.500000E+06  V =  0.00000      BETA = 0.593424      Q =  0.00000    
      KODE = 3  NTRIAL =   2  T = 468.6254  P = 1.500000E+06  V =  0.00000      BETA = 0.572296      Q =  0.00000    
      KODE = 3  NTRIAL =   2  T = 468.6254  P = 1.500000E+06  V =  0.00000      BETA = 0.551167      Q =  0.00000    
      KODE = 3  NTRIAL =   2  T = 468.6254  P = 1.500000E+06  V =  0.00000      BETA = 0.530038      Q =  0.00000    
      KODE = 3  NTRIAL =   2  T = 468.6254  P = 1.500000E+06  V =  0.00000      BETA = 0.508910      Q =  0.00000    
      KODE = 3  NTRIAL =   2  T = 468.6254  P = 1.500000E+06  V =  0.00000      BETA = 0.487781      Q =  0.00000    
      KODE = 3  NTRIAL =   2  T = 468.6254  P = 1.500000E+06  V =  0.00000      BETA = 0.466652      Q =  0.00000    
      KODE = 3  NTRIAL =   2  T = 468.6254  P = 1.500000E+06  V =  0.00000      BETA = 0.445524      Q =  0.00000    
      KODE = 3  NTRIAL =   2  T = 468.6254  P = 1.500000E+06  V =  0.00000      BETA = 0.424395      Q =  0.00000    
      KODE = 3  NTRIAL =   2  T = 468.6254  P = 1.500000E+06  V =  0.00000      BETA = 0.403266      Q =  0.00000    
      KODE = 3  NTRIAL =   2  T = 468.6254  P = 1.500000E+06  V =  0.00000      BETA = 0.382138      Q =  0.00000    
      KODE = 3  NTRIAL =   2  T = 468.6254  P = 1.500000E+06  V =  0.00000      BETA = 0.361009      Q =  0.00000    
      KODE = 3  NTRIAL =   2  T = 468.6254  P = 1.500000E+06  V =  0.00000      BETA = 0.339880      Q =  0.00000    
      KODE = 3  NTRIAL =   2  T = 468.6254  P = 1.500000E+06  V =  0.00000      BETA = 0.318752      Q =  0.00000    
      KODE = 3  NTRIAL =   2  T = 468.6254  P = 1.500000E+06  V =  0.00000      BETA = 0.297623      Q =  0.00000    
      KODE = 3  NTRIAL =   2  T = 468.6254  P = 1.500000E+06  V =  0.00000      BETA = 0.276494      Q =  0.00000    
      KODE = 3  NTRIAL =   2  T = 468.6254  P = 1.500000E+06  V =  0.00000      BETA = 0.255366      Q =  0.00000    
      KODE = 3  NTRIAL =   2  T = 468.6254  P = 1.500000E+06  V =  0.00000      BETA = 0.234237      Q =  0.00000    
      KODE = 3  NTRIAL =   2  T = 468.6254  P = 1.500000E+06  V =  0.00000      BETA = 0.213108      Q =  0.00000    
      KODE = 3  NTRIAL =   2  T = 468.6254  P = 1.500000E+06  V =  0.00000      BETA = 0.191980      Q =  0.00000    
      KODE = 3  NTRIAL =   2  T = 468.6254  P = 1.500000E+06  V =  0.00000      BETA = 0.170851      Q =  0.00000    
      KODE = 3  NTRIAL =   2  T = 468.6254  P = 1.500000E+06  V =  0.00000      BETA = 0.149722      Q =  0.00000    
      KODE = 3  NTRIAL =   2  T = 468.6254  P = 1.500000E+06  V =  0.00000      BETA = 0.128594      Q =  0.00000    
      KODE = 3  NTRIAL =   2  T = 468.6254  P = 1.500000E+06  V =  0.00000      BETA = 0.107465      Q =  0.00000    
      KODE = 3  NTRIAL =   2  T = 468.6254  P = 1.500000E+06  V =  0.00000      BETA = 8.633616E-02  Q =  0.00000    
      KODE = 3  NTRIAL =   2  T = 468.6254  P = 1.500000E+06  V =  0.00000      BETA = 6.520748E-02  Q =  0.00000    
      KODE = 3  NTRIAL =   2  T = 468.6254  P = 1.500000E+06  V =  0.00000      BETA = 4.407880E-02  Q =  0.00000    
      KODE = 3  NTRIAL =   2  T = 468.6254  P = 1.500000E+06  V =  0.00000      BETA = 2.295012E-02  Q =  0.00000    
      KODE = 3  NTRIAL =   2  T = 468.6254  P = 1.500000E+06  V =  0.00000      BETA = 1.821443E-03  Q =  0.00000    
      KODE = 3  NTRIAL =  17  T = 469.0753  P = 1.500000E+06  V =  0.00000      BETA =  1.00000      Q =  0.00000    
      KODE = 3  NTRIAL =   7  T = 469.9623  P = 1.500000E+06  V =  0.00000      BETA =  1.00000      Q =  0.00000    
      KODE = 3  NTRIAL =   4  T = 471.5536  P = 1.500000E+06  V =  0.00000      BETA =  1.00000      Q =  0.00000    

      BEGIN CALCULATIONS FOR PROP-TABLE BINRY-2                                   TIME =     10.15
      KODE = 3  NTRIAL =   5  T = 456.9010  P =  100000.      V =  0.00000      BETA =  1.00000      Q =  0.00000    
      KODE = 3  NTRIAL =   8  T = 433.8439  P =  100000.      V =  0.00000      BETA =  1.00000      Q =  0.00000    
      KODE = 3  NTRIAL =   9  T = 419.9221  P =  100000.      V =  0.00000      BETA =  1.00000      Q =  0.00000    
      KODE = 3  NTRIAL =   8  T = 410.4501  P =  100000.      V =  0.00000      BETA =  1.00000      Q =  0.00000    
      KODE = 3  NTRIAL =   7  T = 403.4827  P =  100000.      V =  0.00000      BETA =  1.00000      Q =  0.00000    
      KODE = 3  NTRIAL =   7  T = 398.0865  P =  100000.      V =  0.00000      BETA =  1.00000      Q =  0.00000    
      KODE = 3  NTRIAL =   7  T = 393.7553  P =  100000.      V =  0.00000      BETA =  1.00000      Q =  0.00000    
      KODE = 3  NTRIAL =   7  T = 390.1883  P =  100000.      V =  0.00000      BETA =  1.00000      Q =  0.00000    
      KODE = 3  NTRIAL =   7  T = 387.1941  P =  100000.      V =  0.00000      BETA =  1.00000      Q =  0.00000    
      KODE = 3  NTRIAL =   7  T = 384.6441  P =  100000.      V =  0.00000      BETA =  1.00000      Q =  0.00000    
      KODE = 3  NTRIAL =   7  T = 382.4482  P =  100000.      V =  0.00000      BETA =  1.00000      Q =  0.00000    
      KODE = 3  NTRIAL =   7  T = 380.5412  P =  100000.      V =  0.00000      BETA =  1.00000      Q =  0.00000    
      KODE = 3  NTRIAL =   7  T = 378.8744  P =  100000.      V =  0.00000      BETA =  1.00000      Q =  0.00000    
      KODE = 3  NTRIAL =   6  T = 377.4107  P =  100000.      V =  0.00000      BETA =  1.00000      Q =  0.00000    
      KODE = 3  NTRIAL =   6  T = 376.1213  P =  100000.      V =  0.00000      BETA =  1.00000      Q =  0.00000    
      KODE = 3  NTRIAL =   6  T = 374.9832  P =  100000.      V =  0.00000      BETA =  1.00000      Q =  0.00000    
      KODE = 3  NTRIAL =   6  T = 373.9780  P =  100000.      V =  0.00000      BETA =  1.00000      Q =  0.00000    
      KODE = 3  NTRIAL =   6  T = 373.0909  P =  100000.      V =  0.00000      BETA =  1.00000      Q =  0.00000    
      KODE = 3  NTRIAL =   6  T = 372.3093  P =  100000.      V =  0.00000      BETA =  1.00000      Q =  0.00000    
      KODE = 3  NTRIAL =   9  T = 371.8387  P =  100000.      V =  0.00000      BETA = 0.989302      Q =  0.00000    
      KODE = 3  NTRIAL =   2  T = 371.8387  P =  100000.      V =  0.00000      BETA = 0.956736      Q =  0.00000    
      KODE = 3  NTRIAL =   2  T = 371.8387  P =  100000.      V =  0.00000      BETA = 0.924170      Q =  0.00000    
      KODE = 3  NTRIAL =   2  T = 371.8387  P =  100000.      V =  0.00000      BETA = 0.891605      Q =  0.00000    
      KODE = 3  NTRIAL =   2  T = 371.8387  P =  100000.      V =  0.00000      BETA = 0.859039      Q =  0.00000    
      KODE = 3  NTRIAL =   2  T = 371.8387  P =  100000.      V =  0.00000      BETA = 0.826473      Q =  0.00000    
      KODE = 3  NTRIAL =   2  T = 371.8387  P =  100000.      V =  0.00000      BETA = 0.793908      Q =  0.00000    
      KODE = 3  NTRIAL =   2  T = 371.8387  P =  100000.      V =  0.00000      BETA = 0.761342      Q =  0.00000    
      KODE = 3  NTRIAL =   2  T = 371.8387  P =  100000.      V =  0.00000      BETA = 0.728776      Q =  0.00000    
      KODE = 3  NTRIAL =   2  T = 371.8387  P =  100000.      V =  0.00000      BETA = 0.696211      Q =  0.00000    
      KODE = 3  NTRIAL =   2  T = 371.8387  P =  100000.      V =  0.00000      BETA = 0.663645      Q =  0.00000    
      KODE = 3  NTRIAL =   2  T = 371.8387  P =  100000.      V =  0.00000      BETA = 0.631080      Q =  0.00000    
      KODE = 3  NTRIAL =   2  T = 371.8387  P =  100000.      V =  0.00000      BETA = 0.598514      Q =  0.00000    
      KODE = 3  NTRIAL =   2  T = 371.8387  P =  100000.      V =  0.00000      BETA = 0.565948      Q =  0.00000    
      KODE = 3  NTRIAL =   2  T = 371.8387  P =  100000.      V =  0.00000      BETA = 0.533383      Q =  0.00000    
      KODE = 3  NTRIAL =   2  T = 371.8387  P =  100000.      V =  0.00000      BETA = 0.500817      Q =  0.00000    
      KODE = 3  NTRIAL =   2  T = 371.8387  P =  100000.      V =  0.00000      BETA = 0.468251      Q =  0.00000    
      KODE = 3  NTRIAL =   2  T = 371.8387  P =  100000.      V =  0.00000      BETA = 0.435686      Q =  0.00000    
      KODE = 3  NTRIAL =   2  T = 371.8387  P =  100000.      V =  0.00000      BETA = 0.403120      Q =  0.00000    
      KODE = 3  NTRIAL =   2  T = 371.8387  P =  100000.      V =  0.00000      BETA = 0.370555      Q =  0.00000    
      KODE = 3  NTRIAL =   2  T = 371.8387  P =  100000.      V =  0.00000      BETA = 0.337989      Q =  0.00000    
      KODE = 3  NTRIAL =   2  T = 371.8387  P =  100000.      V =  0.00000      BETA = 0.305423      Q =  0.00000    
      KODE = 3  NTRIAL =   2  T = 371.8387  P =  100000.      V =  0.00000      BETA = 0.272858      Q =  0.00000    
      KODE = 3  NTRIAL =   2  T = 371.8387  P =  100000.      V =  0.00000      BETA = 0.240292      Q =  0.00000    
      KODE = 3  NTRIAL =   2  T = 371.8387  P =  100000.      V =  0.00000      BETA = 0.207726      Q =  0.00000    
      KODE = 3  NTRIAL =   2  T = 371.8387  P =  100000.      V =  0.00000      BETA = 0.175161      Q =  0.00000    
      KODE = 3  NTRIAL =   2  T = 371.8387  P =  100000.      V =  0.00000      BETA = 0.142595      Q =  0.00000    
      KODE = 3  NTRIAL =   2  T = 371.8387  P =  100000.      V =  0.00000      BETA = 0.110030      Q =  0.00000    
      KODE = 3  NTRIAL =   2  T = 371.8387  P =  100000.      V =  0.00000      BETA = 7.746390E-02  Q =  0.00000    
      KODE = 3  NTRIAL =   2  T = 371.8387  P =  100000.      V =  0.00000      BETA = 4.489827E-02  Q =  0.00000    
      KODE = 3  NTRIAL =   2  T = 371.8387  P =  100000.      V =  0.00000      BETA = 1.233264E-02  Q =  0.00000    
      KODE = 3  NTRIAL =   2  T = 372.7276  P =  100000.      V =  0.00000      BETA =  1.00000      Q =  0.00000    

 Results generated                                                                Time =     10.20

RUN SAVED



 *** SUMMARY OF ERRORS ***

                  PHYSICAL
                  PROPERTY  SYSTEM  SIMULATION
 TERMINAL ERRORS      0        0         0
   SEVERE ERRORS      0        0         0
          ERRORS      0        0         0
        WARNINGS      0        0         1
