
 + + + + + + + + + + + + + + + + + + + + + + + + + + + + + + + + + + + + + + + +
 + + + + + + + + + + + + + + + + + + + + + + + + + + + + + + + + + + + + + + + +
 + +                                                                         + +
 + +                      ASPEN PLUS CALCULATION HISTORY                     + +
 + +                                                                         + +
 + + + + + + + + + + + + + + + + + + + + + + + + + + + + + + + + + + + + + + + +
 + + + + + + + + + + + + + + + + + + + + + + + + + + + + + + + + + + + + + + + +

 ASPEN PLUS IS A TRADEMARK OF           HOTLINE:
 ASPEN TECHNOLOGY, INC.                 U.S.A. 888/996-7100
 781/221-6400                           EUROPE (44) 1189-226555

 PLATFORM: WIN-X64                                       MARCH 27, 2026      
 VERSION: 41.0   Build 609                               FRIDAY      
 INSTALLATION:                                           3:59:22 A.M.        

 THIS COPY OF ASPEN PLUS LICENSED TO UNIVERSITY OF BRITISH CO        


      ASPEN PLUS (R) IS A PROPRIETARY PRODUCT OF ASPEN TECHNOLOGY, INC.
      (ASPENTECH), AND MAY BE USED ONLY UNDER AGREEMENT WITH ASPENTECH.
      RESTRICTED RIGHTS LEGEND:  USE, REPRODUCTION, OR DISCLOSURE BY THE
      U.S. GOVERNMENT IS SUBJECT TO RESTRICTIONS SET FORTH IN 
      (i) FAR 52.227-14, Alt. III, (ii) FAR 52.227-19, (iii) DFARS 
      252.227-7013(c)(1)(ii), or (iv) THE ACCOMPANYING LICENSE AGREEMENT,
      AS APPLICABLE. FOR PURPOSES OF THE FAR, THIS SOFTWARE SHALL BE DEEMED
      TO BE "UNPUBLISHED" AND LICENSED WITH DISCLOSURE PROHIBITIONS.
      CONTRACTOR/SUBCONTRACTOR: ASPEN TECHNOLOGY, INC. 20 CROSBY DRIVE,
      BEDFORD, MA 01730.
 *** INPUT SUMMARY ***

 >>CURRENT RUN

   ORIGINAL RUN                           MARCH 27, 2026      
   3:59:22 A.M.                           FRIDAY      
   INPUT FILE: _4956pli.inm
   RUN ID : _4956pli
          1    ;
          2    ;Input file created by Aspen Plus Rel. 41.0 at 03:59:21 Fri Mar 27, 2026
          3    ;Directory Z:\Documents\Education\UBC\CHBE 376\Term Project  Runid TERM PROJECT
          4    ;
          5
          6
          7    DYNAMICS
          8        DYNAMICS RESULTS=ON
          9
         10    IN-UNITS MET PRESSURE=bar TEMPERATURE=C DELTA-T=C PDROP=bar  &
         11            INVERSE-PRES='1/bar' SHORT-LENGTH=mm
         12
         13    DEF-STREAMS CONVEN ALL
         14
         15    MODEL-OPTION
         16
         17    DATABANKS 'APV150 PURE41' / 'APV150 AQUEOUS' / 'APV150 SOLIDS' &
         18             / 'APV150 INORGANIC' / 'APESV150 AP-EOS' /  &
         19            'NISTV150 NIST-TRC' / NOASPENPCD
         20
         21    PROP-SOURCES 'APV150 PURE41' / 'APV150 AQUEOUS' /  &
         22            'APV150 SOLIDS' / 'APV150 INORGANIC' / 'APESV150 AP-EOS' &
         23             / 'NISTV150 NIST-TRC'
         24
         25    COMPONENTS
         26        HYDROGEN H2 /
         27        NITROBEN C6H5NO2 /
         28        ANILINE C6H7N-1 /
         29        WATER H2O /
         30        HEPTANE C7H16-1
         31
         32    HENRY-COMPS HC-1 HYDROGEN
         33
         34    SOLVE
         35        RUN-MODE MODE=SIM
         36
         37    FLOWSHEET
         38        BLOCK R101 IN=FEED-MIX OUT=PROD
         39        BLOCK D101 IN=PROD OUT=VAPOUR LIQUID
         40        BLOCK M101 IN=FEED RECYCLE OUT=FEED-MIX
         41        BLOCK S101 IN=VAPOUR OUT=RECYCLE PURGE
         42        BLOCK D102 IN=LIQUID SOLVENT OUT=EXTRCT RFFNT
         43        BLOCK D103 IN=EXTRCT OUT=DSTL BTTM
         44
         45    PROPERTIES PSRK
         46        PROPERTIES NRTL / UNIFAC / UNIQUAC
         47
         48    ESTIMATE ALL
         49
         50    PROP-DATA HENRY-1
         51        IN-UNITS MET PRESSURE=bar TEMPERATURE=C DELTA-T=C PDROP=bar  &
         52            INVERSE-PRES='1/bar' SHORT-LENGTH=mm
         53        PROP-LIST HENRY
         54        BPVAL HYDROGEN NITROBEN 37.23217254 -850.3300170  &
         55            -4.500700000 0.0 24.85000000 69.85000000 0.0
         56        BPVAL HYDROGEN ANILINE 13.50557354 -1295.099976 0.0 0.0  &
         57            20.00000000 25.00000000 0.0
         58        BPVAL HYDROGEN WATER 180.0660745 -6993.510000 -26.31190000  &
         59            .0150431000 .8500000000 65.85000000 0.0
         60        BPVAL HYDROGEN HEPTANE 62.03757354 -1196.400024 -9.565100000  &
         61            .0126410000 -35.00000000 50.00000000 0.0
         62
         63    PROP-DATA NRTL-1
         64        IN-UNITS MET PRESSURE=bar TEMPERATURE=C DELTA-T=C PDROP=bar  &
         65            INVERSE-PRES='1/bar' SHORT-LENGTH=mm
         66        PROP-LIST NRTL
         67        BPVAL NITROBEN ANILINE 0.0 284.9657000 .3000000000 0.0 0.0  &
         68            0.0 83.00000000 99.00000000
         69        BPVAL ANILINE NITROBEN 0.0 -216.2556000 .3000000000 0.0  &
         70            0.0 0.0 83.00000000 99.00000000
         71        BPVAL NITROBEN WATER -5.154900000 2270.617200 .2000000000  &
         72            0.0 0.0 0.0 0.0 106.6000000
         73        BPVAL WATER NITROBEN 5.854700000 229.4967000 .2000000000  &
         74            0.0 0.0 0.0 0.0 106.6000000
         75        BPVAL ANILINE WATER -.8969000000 509.3646000 .3000000000  &
         76            0.0 0.0 0.0 99.00000000 168.0000000
         77        BPVAL WATER ANILINE 2.238300000 362.5433000 .3000000000 0.0  &
         78            0.0 0.0 99.00000000 168.0000000
         79        BPVAL ANILINE HEPTANE .7215000000 182.1659000 .3000000000  &
         80            0.0 0.0 0.0 51.50000000 165.5000000
         81        BPVAL HEPTANE ANILINE -1.852200000 1172.585800 .3000000000  &
         82            0.0 0.0 0.0 51.50000000 165.5000000
         83        BPVAL WATER HEPTANE 10.54680000 440.7775000 .2000000000 0.0  &
         84            0.0 0.0 0.0 50.00000000
         85        BPVAL HEPTANE WATER -9.865200000 4795.660200 .2000000000  &
         86            0.0 0.0 0.0 0.0 50.00000000
         87
         88    PROP-DATA UNIQ-1
         89        IN-UNITS MET PRESSURE=bar TEMPERATURE=C DELTA-T=C PDROP=bar  &
         90            INVERSE-PRES='1/bar' SHORT-LENGTH=mm
         91        PROP-LIST UNIQ
         92        BPVAL NITROBEN ANILINE 0.0 -159.2074000 0.0 0.0  &
         93            83.00000000 99.00000000 0.0
         94        BPVAL ANILINE NITROBEN 0.0 125.3297000 0.0 0.0 83.00000000  &
         95            99.00000000 0.0
         96        BPVAL NITROBEN WATER 0.0 -613.0500000 0.0 0.0 20.00000000  &
         97            40.00000000 0.0
         98        BPVAL WATER NITROBEN 0.0 -254.9500000 0.0 0.0 20.00000000  &
         99            40.00000000 0.0
        100        BPVAL ANILINE WATER -.4676000000 -172.2809000 0.0 0.0  &
        101            99.00000000 168.0000000 0.0
        102        BPVAL WATER ANILINE .6554000000 -168.0642000 0.0 0.0  &
        103            99.00000000 168.0000000 0.0
        104        BPVAL ANILINE HEPTANE -1.586100000 638.9305000 0.0 0.0  &
        105            51.50000000 165.5000000 0.0
        106        BPVAL HEPTANE ANILINE 2.881200000 -1390.510700 0.0 0.0  &
        107            51.50000000 165.5000000 0.0
        108        BPVAL WATER HEPTANE 0.0 -575.8500000 0.0 0.0 20.00000000  &
        109            40.00000000 0.0
        110        BPVAL HEPTANE WATER 0.0 -1283.200000 0.0 0.0 20.00000000  &
        111            40.00000000 0.0
        112
        113    STREAM FEED
        114        SUBSTREAM MIXED TEMP=350. PRES=1.5 <MPa>
        115        MOLE-FLOW HYDROGEN 6875000. <kmol/oper-year> / NITROBEN  &
        116            1356437.5 <kmol/oper-year> / ANILINE 0. <kmol/oper-year> /  &
        117            WATER 18562.5 <kmol/oper-year>
        118
        119    STREAM SOLVENT
        120        SUBSTREAM MIXED TEMP=50. PRES=0.1 <MPa> MOLE-FLOW=150.
        121        MOLE-FRAC HEPTANE 1.
        122
        123    BLOCK M101 MIXER
        124        PARAM
        125
        126    BLOCK S101 FSPLIT
        127        FRAC RECYCLE 0.8
        128
        129    BLOCK D101 FLASH2
        130        PARAM TEMP=50. PRES=0. <MPa> NPHASE=3
        131        BLOCK-OPTION FREE-WATER=NO
        132
        133    BLOCK D103 RADFRAC
        134        PARAM NSTAGE=8 ALGORITHM=STANDARD MAXOL=25 NPHASE=3  &
        135            DAMPING=NONE
        136        PARAM2
        137        COL-CONFIG CONDENSER=PARTIAL-V
        138        FEEDS EXTRCT 2
        139        PRODUCTS DSTL 1 V / BTTM 8 L
        140        P-SPEC 1 0.1 <MPa>
        141        COL-SPECS D:F=0.562 MOLE-RR=0.135
        142        L2-COMPS WATER
        143        L2-STAGES 1 8
        144        PROPERTIES UNIFAC HENRY-COMPS=HC-1 FREE-WATER=STEAM-TA  &
        145            SOLU-WATER=3 TRUE-COMPS=YES
        146        BLOCK-OPTION FREE-WATER=NO
        147
        148    BLOCK D102 EXTRACT
        149        DESCRIPTION 'Liquid-Liquid Extraction Column'
        150        PARAM NSTAGE=10
        151        FEEDS SOLVENT 10 / LIQUID 1
        152        PRODUCTS EXTRCT 1 L2 / RFFNT 10 L1
        153        P-SPEC 1 0.1 <MPa>
        154        L1-COMPS WATER
        155        L2-COMPS HEPTANE
        156        T-EST 1 50.
        157        PROPERTIES UNIFAC HENRY-COMPS=HC-1 FREE-WATER=STEAM-TA  &
        158            SOLU-WATER=3 TRUE-COMPS=YES
        159
        160    BLOCK R101 RPLUG
        161        PARAM TYPE=T-SPEC NTUBE=50 LENGTH=4.5 DIAM=0.0978  &
        162            IGN-CAT-VOL=NO CAT-PRESENT=YES BED-VOIDAGE=0.6  &
        163            CAT-RHO=1422. <kg/cum>
        164        T-SPEC 0.0 350.
        165        REACTIONS RXN-IDS=R-1
        166
        167    EO-CONV-OPTI
        168
        169    CALCULATOR H2-FEED
        170        DEFINE H2RCY MOLE-FLOW STREAM=RECYCLE SUBSTREAM=MIXED  &
        171            COMPONENT=HYDROGEN UOM="kmol/hr"
        172        DEFINE NBFEED MOLE-FLOW STREAM=FEED SUBSTREAM=MIXED  &
        173            COMPONENT=NITROBEN UOM="kmol/hr"
        174        DEFINE H2FEED MOLE-FLOW STREAM=FEED SUBSTREAM=MIXED  &
        175            COMPONENT=HYDROGEN UOM="kmol/hr"
        176    F     H2FEED = 5 * NBFEED - H2RCY
        177        READ-VARS H2RCY NBFEED
        178        WRITE-VARS H2FEED
        179
        180    SENSITIVITY D101-T
        181        DESCRIPTION 'Operating temperature of flash chamber D101'
        182        DEFINE ANIVAP MOLE-FLOW STREAM=VAPOUR SUBSTREAM=MIXED  &
        183            COMPONENT=ANILINE UOM="kmol/hr"
        184        DEFINE ANILIQ MOLE-FLOW STREAM=LIQUID SUBSTREAM=MIXED  &
        185            COMPONENT=ANILINE UOM="kmol/hr"
        186        DEFINE HYDROVAP MOLE-FLOW STREAM=VAPOUR SUBSTREAM=MIXED  &
        187            COMPONENT=HYDROGEN UOM="kmol/hr"
        188        DEFINE HYDROLIQ MOLE-FLOW STREAM=LIQUID SUBSTREAM=MIXED  &
        189            COMPONENT=HYDROGEN UOM="kmol/hr"
        190        DEFINE WATERVAP MOLE-FLOW STREAM=VAPOUR SUBSTREAM=MIXED  &
        191            COMPONENT=WATER UOM="kmol/hr"
        192        DEFINE WATERLIQ MOLE-FLOW STREAM=LIQUID SUBSTREAM=MIXED  &
        193            COMPONENT=WATER UOM="kmol/hr"
        194        TABULATE 1 "ANIVAP"
        195        TABULATE 2 "ANILIQ"
        196        TABULATE 3 "HYDROVAP"
        197        TABULATE 4 "HYDROLIQ"
        198        TABULATE 5 "WATERVAP"
        199        TABULATE 6 "WATERLIQ"
        200        TABULATE 7 "ANILIQ/(ANILIQ+ANIVAP)"
        201        TABULATE 8 "WATERLIQ/(WATERLIQ+WATERVAP)"
        202        VARY BLOCK-VAR BLOCK=D101 VARIABLE=TEMP SENTENCE=PARAM UOM= &
        203            "C"
        204        RANGE OPT-LIST=RANGE LOWER="0" UPPER="200" INCR="5"
        205
        206    SENSITIVITY DSTL-RTO
        207        DEFINE ANIFRAC MASS-FRAC STREAM=BTTM SUBSTREAM=MIXED  &
        208            COMPONENT=ANILINE
        209        DEFINE ANIEXT MOLE-FLOW STREAM=EXTRCT SUBSTREAM=MIXED  &
        210            COMPONENT=ANILINE UOM="kmol/hr"
        211        DEFINE ANIBTM MOLE-FLOW STREAM=BTTM SUBSTREAM=MIXED  &
        212            COMPONENT=ANILINE UOM="kmol/hr"
        213        TABULATE 1 "ANIFRAC"
        214        TABULATE 3 "ANIEXT"
        215        TABULATE 4 "ANIBTM"
        216        TABULATE 2 "ANIBTM/ANIEXT" COL-LABEL="RECOVERY"
        217        VARY BLOCK-VAR BLOCK=D103 VARIABLE=D:F SENTENCE=COL-SPECS
        218        RANGE OPT-LIST=RANGE LOWER="0.2" UPPER="0.6" INCR="0.05"
        219
        220    SENSITIVITY HPT-RATE
        221        DESCRIPTION  &
        222            'Heptane solvent molar flowrate into D102 LL extraction column'
        223        DEFINE ANIFEED MOLE-FLOW STREAM=LIQUID SUBSTREAM=MIXED  &
        224            COMPONENT=ANILINE UOM="kmol/hr"
        225        DEFINE ANIEXT MOLE-FLOW STREAM=EXTRCT SUBSTREAM=MIXED  &
        226            COMPONENT=ANILINE UOM="kmol/hr"
        227        DEFINE ANIBTM MOLE-FLOW STREAM=BTTM SUBSTREAM=MIXED  &
        228            COMPONENT=ANILINE UOM="kmol/hr"
        229        DEFINE ANIFRAC MOLE-FRAC STREAM=BTTM SUBSTREAM=MIXED  &
        230            COMPONENT=ANILINE
        231        TABULATE 1 "ANIFEED"
        232        TABULATE 2 "ANIEXT"
        233        TABULATE 3 "ANIBTM"
        234        TABULATE 4 "ANIEXT/ANIFEED" COL-LABEL="LL REC"
        235        TABULATE 5 "ANIBTM/ANIEXT" COL-LABEL="DSTL REC"
        236        TABULATE 6 "ANIFRAC"
        237        VARY STREAM-VAR STREAM=SOLVENT SUBSTREAM=MIXED  &
        238            VARIABLE=MOLE-FLOW UOM="kmol/hr"
        239        RANGE OPT-LIST=RANGE LOWER="25" UPPER="250" INCR="25"
        240
        241    SENSITIVITY LLE-DSTL
        242        DEFINE ANIFEED MOLE-FLOW STREAM=LIQUID SUBSTREAM=MIXED  &
        243            COMPONENT=ANILINE UOM="kmol/hr"
        244        DEFINE ANIEXT MOLE-FLOW STREAM=EXTRCT SUBSTREAM=MIXED  &
        245            COMPONENT=ANILINE UOM="kmol/hr"
        246        DEFINE ANIBTM MOLE-FLOW STREAM=BTTM SUBSTREAM=MIXED  &
        247            COMPONENT=ANILINE UOM="kmol/hr"
        248        DEFINE ANIFRAC MOLE-FRAC STREAM=BTTM SUBSTREAM=MIXED  &
        249            COMPONENT=ANILINE
        250        TABULATE 1 "ANIFEED"
        251        TABULATE 2 "ANIEXT"
        252        TABULATE 3 "ANIBTM"
        253        TABULATE 4 "ANIFRAC"
        254        TABULATE 5 "ANIEXT/ANIFEED"
        255        TABULATE 6 "ANIBTM/ANIEXT" COL-LABEL="RECOVERY"
        256        VARY STREAM-VAR STREAM=SOLVENT SUBSTREAM=MIXED  &
        257            VARIABLE=MOLE-FLOW UOM="kmol/hr"
        258        RANGE OPT-LIST=RANGE LOWER="100" UPPER="150" INCR="5"
        259        VARY BLOCK-VAR BLOCK=D103 VARIABLE=D:F SENTENCE=COL-SPECS
        260        RANGE OPT-LIST=RANGE LOWER="0.35" UPPER="0.55" INCR="0.01"
        261
        262    SENSITIVITY RSIZE-1
        263        DESCRIPTION 'Length and tube number of reactor R101'
        264        DEFINE BENIN MOLE-FLOW STREAM=FEED SUBSTREAM=MIXED  &
        265            COMPONENT=NITROBEN UOM="kmol/hr"
        266        DEFINE BENOUT MOLE-FLOW STREAM=PROD SUBSTREAM=MIXED  &
        267            COMPONENT=NITROBEN UOM="kmol/hr"
        268        DEFINE ANIPROD MASS-FLOW STREAM=PROD SUBSTREAM=MIXED  &
        269            COMPONENT=ANILINE UOM="tonne/oper-year"
        270        TABULATE 1 "ANIPROD"
        271        TABULATE 2 "(benin-benout)/benin"
        272        VARY BLOCK-VAR BLOCK=R101 VARIABLE=LENGTH SENTENCE=PARAM  &
        273            UOM="meter"
        274        RANGE OPT-LIST=RANGE LOWER="2" UPPER="12" INCR="0.5"
        275        VARY BLOCK-VAR BLOCK=R101 VARIABLE=NTUBE SENTENCE=PARAM
        276        RANGE OPT-LIST=RANGE LOWER="20" UPPER="204" INCR="2"
        277
        278    SENSITIVITY S101-SF
        279        DESCRIPTION 'S101 Split Fraction going into the recycle stream'
        280        DEFINE NBIN MOLE-FLOW STREAM=FEED SUBSTREAM=MIXED  &
        281            COMPONENT=NITROBEN UOM="kmol/hr"
        282        DEFINE NBOUT MOLE-FLOW STREAM=PROD SUBSTREAM=MIXED  &
        283            COMPONENT=NITROBEN UOM="kmol/hr"
        284        DEFINE ANIPROD MOLE-FLOW STREAM=PROD SUBSTREAM=MIXED  &
        285            COMPONENT=ANILINE UOM="kmol/hr"
        286        DEFINE ANIREC MOLE-FLOW STREAM=LIQUID SUBSTREAM=MIXED  &
        287            COMPONENT=ANILINE UOM="kmol/hr"
        288        TABULATE 1 "NBIN"
        289        TABULATE 2 "NBOUT"
        290        TABULATE 3 "ANIPROD"
        291        TABULATE 4 "ANIREC"
        292        TABULATE 5 "(NBIN-NBOUT)/NBIN"
        293        TABULATE 6 "ANIREC/ANIPROD"
        294        VARY BLOCK-VAR BLOCK=S101 SENTENCE=FRAC VARIABLE=FRAC  &
        295            ID1=RECYCLE
        296        RANGE OPT-LIST=RANGE LOWER="0.05" UPPER="0.95" INCR="0.05"
        297
        298    CONSTRAINT AN-EXT-R
        299    ;  "Aniline recovery in D102's extract stream"
        300
        301        DEFINE ANIIN MOLE-FLOW STREAM=LIQUID SUBSTREAM=MIXED  &
        302            COMPONENT=ANILINE UOM="kmol/hr"
        303        DEFINE ANIOUT MOLE-FLOW STREAM=EXTRCT SUBSTREAM=MIXED  &
        304            COMPONENT=ANILINE UOM="kmol/hr"
        305        SPEC "ANIOUT/ANIIN" GE "0.999"
        306        TOL-SPEC "0.001"
        307
        308    OPTIMIZATION HPT-RATE
        309    ;  'Heptane solvent flow rate into D102 LL extraction'
        310
        311        DEFINE HPTFLOW MOLE-FLOW STREAM=SOLVENT SUBSTREAM=MIXED  &
        312            COMPONENT=HEPTANE UOM="kmol/hr"
        313        MINIMIZE "HPTFLOW"
        314        CONSTRAINTS AN-EXT-R
        315        VARY STREAM-VAR STREAM=SOLVENT SUBSTREAM=MIXED  &
        316            VARIABLE=MOLE-FLOW UOM="kmol/hr"
        317        LIMITS "1" "200"
        318
        319    STREAM-REPOR MOLEFLOW
        320
        321    PROPERTY-REP PCES
        322
        323    REACTIONS R-1 POWERLAW
        324        REAC-DATA 1 PHASE=V CBASIS=PARTIALPRES RBASIS=CAT-WT
        325        RATE-CON 1 PRE-EXP=0.0001125 ACT-ENERGY=68507.36 <kJ/kmol>
        326        STOIC 1 MIXED NITROBEN -1. / HYDROGEN -3. / ANILINE 1. / &
        327            WATER 2.
        328        POWLAW-EXP 1 MIXED NITROBEN 0.5 / MIXED HYDROGEN 0.5
        329
        330    PROP-TABLE BINRY-1 FLASHCURVE
        331        IN-UNITS MET PRESSURE=MPa TEMPERATURE=C DELTA-T=C PDROP=bar  &
        332            INVERSE-PRES='1/bar' SHORT-LENGTH=mm
        333        PROPERTIES PSRK FREE-WATER=STEAM-TA SOLU-WATER=3  &
        334            TRUE-COMPS=YES
        335        BLOCK-OPTION FREE-WATER=NO
        336        MOLE-FLOW ANILINE 1 /  WATER  1
        337        STATE VFRAC=0.0
        338        ANALYSIS ANAL-TYPE=TXY
        339        VARY PRES
        340        RANGE LIST=1.5
        341        VARY MOLEFRAC COMP=WATER
        342        RANGE VARVALUE=RANGE LOWER=0.0 UPPER=1.0 NPOINT=100
        343        PARAM NPHASE=3 MAXIT=100
        344
        345    PROP-TABLE BINRY-2 FLASHCURVE
        346        IN-UNITS MET PRESSURE=MPa TEMPERATURE=C DELTA-T=C PDROP=bar  &
        347            INVERSE-PRES='1/bar' SHORT-LENGTH=mm
        348        PROPERTIES PSRK FREE-WATER=STEAM-TA SOLU-WATER=3  &
        349            TRUE-COMPS=YES
        350        MOLE-FLOW ANILINE 1 /  WATER  1
        351        STATE VFRAC=0.0
        352        ANALYSIS ANAL-TYPE=TXY
        353        VARY PRES
        354        RANGE LIST=0.1
        355        VARY MOLEFRAC COMP=WATER
        356        RANGE VARVALUE=RANGE LOWER=0.0 UPPER=1.0 NPOINT=50
        357        PARAM NPHASE=3
        358
        359    DISABLE
        360        SENSITIVITY D101-T DSTL-RTO HPT-RATE RSIZE-1 S101-SF
        361        CONSTRAINT AN-EXT-R
        362        OPTIMIZATION HPT-RATE
        363    ;
        364    ;
        365    ;
        366    ;
        367    ;
 *** INPUT TRANSLATOR MESSAGES ***

      SQLLOCALDB.APESV150 : (DATAVERSION - 41.0.0.10)                         
      SQLLOCALDB.APV150 : (DATAVERSION - 41.0.0.9)                            
      SQLLOCALDB.FACTV150 : (DATAVERSION - 41.0.0.6)                          
      SQLLOCALDB.NISTV150 : (DATAVERSION - 41.0.0.7)                          
  *** THIS RUN USES THE PROPERTIES ENTERPRISE DATABASE ***

      INFORMATION                                              (PSTOP1AP.1)     
      THERE ARE HENRY COMPONENTS DEFINED IN THIS CASE, THE BINARY DATABANK      
      WILL BE SEARCHED AUTOMATICALLY FOR ANY AVAILABLE HENRY CONSTANTS.         



  *   WARNING WHILE CHECKING INPUT SPECIFICATIONS              (PRPCHK.1)       
      INCONSISTENT PROPERTIES DETECTED FOR 1 STREAMS                            
      SOURCE BLOCK        PROPERTIES STREAM   DESTINATION BLOCK   PROPERTIES    
      =================== ========== ======== =================== ==========    
      D101                PSRK       LIQUID   D102                UNIFAC        
 
 CONSTRAINT: AN-EXT-R WILL BE INTERPRETED 
 CALCULATOR BLOCK: H2-FEED WILL BE INTERPRETED 
 SENSITIVITY BLOCK: D101-T WILL BE INTERPRETED 
 SENSITIVITY BLOCK: DSTL-RTO WILL BE INTERPRETED 
 SENSITIVITY BLOCK: HPT-RATE WILL BE INTERPRETED 
 SENSITIVITY BLOCK: LLE-DSTL WILL BE INTERPRETED 
 SENSITIVITY BLOCK: RSIZE-1 WILL BE INTERPRETED 
 SENSITIVITY BLOCK: S101-SF WILL BE INTERPRETED 
 OPTIMIZATION: HPT-RATE WILL BE INTERPRETED 
 

 PDF updated                                                                      TIME =      1.54

 *** CALCULATION TRACE ***


 *** FLOWSHEET ANALYSIS MESSAGES ***

 FLOWSHEET CONNECTIVITY BY STREAMS       

   STREAM     SOURCE     DEST           STREAM     SOURCE     DEST
   FEED       ----       M101           SOLVENT    ----       D102    
   PROD       R101       D101           VAPOUR     D101       S101    
   LIQUID     D101       D102           FEED-MIX   M101       R101    
   RECYCLE    S101       M101           PURGE      S101       ----    
   EXTRCT     D102       D103           RFFNT      D102       ----    
   DSTL       D103       ----           BTTM       D103       ----    

 FLOWSHEET CONNECTIVITY BY BLOCKS        

   BLOCK        INLETS                         OUTLETS
   R101         FEED-MIX                       PROD                        
   D101         PROD                           VAPOUR LIQUID               
   M101         FEED RECYCLE                   FEED-MIX                    
   S101         VAPOUR                         RECYCLE PURGE               
   D102         LIQUID SOLVENT                 EXTRCT RFFNT                
   D103         EXTRCT                         DSTL BTTM                   

      BLOCK $OLVER01 (METHOD: WEGSTEIN) HAS BEEN DEFINED TO CONVERGE
               STREAMS: RECYCLE

  *   WARNING DURING FLOWSHEET ANALYSIS                        (AF2MER.2)       
      BECAUSE TEAR-VAR=NO IN CONV-OPTIONS, AN INFORMATION TEAR:                 
         STREAM $WRV7     FROM H2-FEED      TO FST$FEED                         
      WILL NOT BE CONVERGED BY A CONVERGENCE BLOCK. THIS MAY CAUSE              
      CONVERGENCE PROBLEMS OR MISLEADING RESULTS. IF THIS STREAM IS             
      A TEAR, SET TEAR-VAR=YES IN CONV-OPTIONS TO CAUSE IT TO BE                
      CONVERGED. OTHERWISE, PLEASE CHECK THE LOCATION OF FORTRAN                
      BLOCK H2-FEED      IN THE SEQUENCE AND CONSIDER MOVING                    
      IT BY USING THE 'EXECUTE' KEYWORD OR OTHER METHODS.                       

      COMPUTATION ORDER FOR THE FLOWSHEET IS:
      $OLVER01 M101 R101 D101 S101 H2-FEED 
      (RETURN $OLVER01) 
      LLE-DSTL D102 D103 
      (RETURN LLE-DSTL) 

Calculations begin                                                              time      0.06


 SIMULATION CALCULATIONS BEGIN                                                    TIME =      0.06

      CONVERGENCE BLOCK $OLVER01  METHOD: WEGSTEIN                                TIME =      0.06
      ITER   0 For Tear Streams: RECYCLE

      ENTHALPY CALCULATION FOR INLET STREAM FEED OF BLOCK M101                    TIME =      0.06
      KODE = 2  NTRIAL =   5  T = 623.1500  P = 1.500000E+06  V =  1.00000      Q =  0.00000    

      UOS BLOCK M101     MODEL: MIXER                                             TIME =      0.06
      NO. TEMP ITER =    5     TEMP =  623.150    
      KODE = 1  NTRIAL =   6  T = 623.1500  P = 1.500000E+06  V =  1.00000      Q =  0.00000    

      UOS BLOCK R101     MODEL: RPLUG                                             TIME =      0.07
        AT REACTOR EXIT :
        LENGTH =   4.5000      DIAMETER =  0.97800E-01  RESIDENCE TIME =   1.2861    
        PROCESS STREAM T =    623.15     P =   0.15000E+07 H =  -0.13219E+08 V =    1.0000    

      UOS BLOCK D101     MODEL: FLASH2                                            TIME =      0.07
      KODE = 2  NTRIAL =  10  T = 323.1500  P = 1.500000E+06  V = 0.409029      BETA = 0.518462      Q =-9.657966E+06

      UOS BLOCK S101     MODEL: FSPLIT                                            TIME =      0.08
      NO. TEMP ITER =    1     TEMP =  323.150    
      KODE = 1  NTRIAL =   1  T = 323.1500  P = 1.500000E+06  V =  1.00000      Q =  0.00000    
      SPLIT FRACTIONS:  0.80000D+00    0.20000D+00

      CALCULATOR BLOCK H2-FEED                                                    TIME =      0.08
      ---FLASH STREAM FEED    :
      KODE = 2  NTRIAL =   5  T = 623.1500  P = 1.500000E+06  V =  1.00000      Q = -524499.    

      CONVERGENCE BLOCK $OLVER01  METHOD: WEGSTEIN                                TIME =      0.08
      ITER   1 For Tear Streams: RECYCLE

      --FLASH TEAR STREAM RECYCLE 
      NO. TEMP ITER =    1     TEMP =  323.150    
      KODE = 1  NTRIAL =   1  T = 323.1500  P = 1.500000E+06  V =  1.00000      Q =  0.00000    

  LOOP $OLVER01 ITER    1:   4 VARS NOT CONVERGED, MAX ERR/TOL     0.10000E+07    TIME =      0.08

      UOS BLOCK M101     MODEL: MIXER                                             TIME =      0.08
      NO. TEMP ITER =    5     TEMP =  581.380    
      KODE = 1  NTRIAL =   5  T = 581.3800  P = 1.500000E+06  V =  1.00000      Q =  0.00000    

      UOS BLOCK R101     MODEL: RPLUG                                             TIME =      0.08
        AT REACTOR EXIT :
        LENGTH =   4.5000      DIAMETER =  0.97800E-01  RESIDENCE TIME =   1.2995    
        PROCESS STREAM T =    623.15     P =   0.15000E+07 H =  -0.13392E+08 V =    1.0000    

      UOS BLOCK D101     MODEL: FLASH2                                            TIME =      0.09
      KODE = 2  NTRIAL =   1  T = 323.1500  P = 1.500000E+06  V = 0.399618      BETA = 0.484097      Q =-9.668268E+06

      UOS BLOCK S101     MODEL: FSPLIT                                            TIME =      0.09
      KODE = 1  NTRIAL =  10  T = 323.1500  P = 1.500000E+06  V =  1.00000      Q =  0.00000    
      SPLIT FRACTIONS:  0.80000D+00    0.20000D+00

      CALCULATOR BLOCK H2-FEED                                                    TIME =      0.09
      ---FLASH STREAM FEED    :
      KODE = 2  NTRIAL =   5  T = 623.1500  P = 1.500000E+06  V =  1.00000      Q =  17282.9    

      CONVERGENCE BLOCK $OLVER01  METHOD: WEGSTEIN                                TIME =      0.09
      ITER   2 For Tear Streams: RECYCLE

      --FLASH TEAR STREAM RECYCLE 
      KODE = 1  NTRIAL =  10  T = 323.1500  P = 1.500000E+06  V =  1.00000      Q =  0.00000    

  LOOP $OLVER01 ITER    2:   4 VARS NOT CONVERGED, MAX ERR/TOL     -332.25        TIME =      0.10

      UOS BLOCK M101     MODEL: MIXER                                             TIME =      0.10
      NO. TEMP ITER =    5     TEMP =  582.787    
      KODE = 1  NTRIAL =   5  T = 582.7872  P = 1.500000E+06  V =  1.00000      Q =  0.00000    

      UOS BLOCK R101     MODEL: RPLUG                                             TIME =      0.10
        AT REACTOR EXIT :
        LENGTH =   4.5000      DIAMETER =  0.97800E-01  RESIDENCE TIME =   1.2997    
        PROCESS STREAM T =    623.15     P =   0.15000E+07 H =  -0.13388E+08 V =    1.0000    

      UOS BLOCK D101     MODEL: FLASH2                                            TIME =      0.10
      KODE = 2  NTRIAL =   1  T = 323.1500  P = 1.500000E+06  V = 0.399657      BETA = 0.484016      Q =-9.667091E+06

      UOS BLOCK S101     MODEL: FSPLIT                                            TIME =      0.11
      NO. TEMP ITER =    1     TEMP =  323.150    
      KODE = 1  NTRIAL =   1  T = 323.1500  P = 1.500000E+06  V =  1.00000      Q =  0.00000    
      SPLIT FRACTIONS:  0.80000D+00    0.20000D+00

      CALCULATOR BLOCK H2-FEED                                                    TIME =      0.11
      ---FLASH STREAM FEED    :
      KODE = 2  NTRIAL =   5  T = 623.1500  P = 1.500000E+06  V =  1.00000      Q = 0.780497    

      CONVERGENCE BLOCK $OLVER01  METHOD: WEGSTEIN                                TIME =      0.11
      ITER   3 For Tear Streams: RECYCLE

  LOOP $OLVER01 ITER    3:     *** CONVERGED *** , MAX ERR/TOL    -0.16640E-01    TIME =      0.11

 SENSITIVITY BLOCK LLE-DSTL ROW     1 EVALUATION BEGINS                           TIME =      0.12
      VARY VARIABLES:  0.27778E-01 0.35000    

      ENTHALPY CALCULATION FOR INLET STREAM SOLVENT OF BLOCK D102                 TIME =      0.12
      KODE = 2  NTRIAL =   1  T = 323.1500  P =  100000.      V =  0.00000      Q =  0.00000    

      UOS BLOCK D102     MODEL: EXTRACT                                           TIME =      0.12

      Convergence iterations:
         OL   IL     Err/Tol
          1    1      2698.0    
 
          2    1      3.4183    
 
          3    3      3.5081    
 
          4    2     0.26541    
 

      UOS BLOCK D103     MODEL: RADFRAC                                           TIME =      0.13

       Convergence iterations:
         OL   ML   IL     Err/Tol
          1    1    3   162.37    
          2    1    4   55.570    
          3    1    3   16.683    
          4    1    4   4.8706    
          5    1    3   1.5442    
          6    1    3  0.37270    

  *   WARNING WHILE EXECUTING UNIT OPERATIONS BLOCK: "D103" (MODEL: "RADFRAC")  
                                                               (CHKSTB.1)       
      THE LIQUID PHASE MAY BE UNSTABLE ON ONE OR MORE STAGES.                   
      COMPONENT "WATER" STABILITY INDEX IS (1.12889) ON STAGE (3)               
      WITH MOLE FRACTION (0.413051E-01).                                        

 SENSITIVITY BLOCK LLE-DSTL ROW     2 EVALUATION BEGINS                           TIME =      0.16
      VARY VARIABLES:  0.27778E-01 0.36000    

      UOS BLOCK D102     MODEL: EXTRACT                                           TIME =      0.16

      Convergence iterations:
         OL   IL     Err/Tol
          1    1     0.87307E-01
 

      UOS BLOCK D103     MODEL: RADFRAC                                           TIME =      0.17

       Convergence iterations:
         OL   ML   IL     Err/Tol
          1    1    6   12.248    
          2    1    4   7.8242    
          3    1    3   2.7706    
          4    1    3  0.88467    

  *   WARNING WHILE EXECUTING UNIT OPERATIONS BLOCK: "D103" (MODEL: "RADFRAC")  
                                                               (CHKSTB.1)       
      THE LIQUID PHASE MAY BE UNSTABLE ON ONE OR MORE STAGES.                   
      COMPONENT "WATER" STABILITY INDEX IS (1.14566) ON STAGE (3)               
      WITH MOLE FRACTION (0.406720E-01).                                        

 SENSITIVITY BLOCK LLE-DSTL ROW     3 EVALUATION BEGINS                           TIME =      0.19
      VARY VARIABLES:  0.27778E-01 0.37000    

      UOS BLOCK D102     MODEL: EXTRACT                                           TIME =      0.19

      Convergence iterations:
         OL   IL     Err/Tol
          1    1     0.44002E-02
 

      UOS BLOCK D103     MODEL: RADFRAC                                           TIME =      0.19

       Convergence iterations:
         OL   ML   IL     Err/Tol
          1    1    6   12.941    
          2    1    3   3.7359    
          3    1    3   1.7395    
          4    1    4  0.41703    

  *   WARNING WHILE EXECUTING UNIT OPERATIONS BLOCK: "D103" (MODEL: "RADFRAC")  
                                                               (CHKSTB.1)       
      THE LIQUID PHASE MAY BE UNSTABLE ON ONE OR MORE STAGES.                   
      COMPONENT "WATER" STABILITY INDEX IS (1.13079) ON STAGE (4)               
      WITH MOLE FRACTION (0.412530E-01).                                        

 SENSITIVITY BLOCK LLE-DSTL ROW     4 EVALUATION BEGINS                           TIME =      0.21
      VARY VARIABLES:  0.27778E-01 0.38000    

      UOS BLOCK D102     MODEL: EXTRACT                                           TIME =      0.21

      Convergence iterations:
         OL   IL     Err/Tol
          1    1     0.46738E-03
 

      UOS BLOCK D103     MODEL: RADFRAC                                           TIME =      0.22

       Convergence iterations:
         OL   ML   IL     Err/Tol
          1    1    9   1108.1    
          2    1    5   687.84    
          3    1    9   2945.1    
          4    1   10   4385.6    
          5    1   10   2538.6    
          6    1    6   2058.9    
          7    1    5   2025.2    
          8    1    6   1290.5    
          9    1    7   872.82    
         10    1    8   2444.4    
         11    1    4   993.49    
         12    1    4   347.27    
         13    1    4   218.57    
         14    1    3   93.054    
         15    1    4   10.685    
         16    1    4   6.6663    
         17    1    2   2.3098    
         18    1    4  0.76456    

  *   WARNING WHILE EXECUTING UNIT OPERATIONS BLOCK: "D103" (MODEL: "RADFRAC")  
                                                               (CHKSTB.1)       
      THE LIQUID PHASE MAY BE UNSTABLE ON ONE OR MORE STAGES.                   
      COMPONENT "WATER" STABILITY INDEX IS (1.14800) ON STAGE (2)               
      WITH MOLE FRACTION (0.405761E-01).                                        

 SENSITIVITY BLOCK LLE-DSTL ROW     5 EVALUATION BEGINS                           TIME =      0.29
      VARY VARIABLES:  0.27778E-01 0.39000    

      UOS BLOCK D102     MODEL: EXTRACT                                           TIME =      0.29

      Convergence iterations:
         OL   IL     Err/Tol
          1    1     0.28431E-04
 

      UOS BLOCK D103     MODEL: RADFRAC                                           TIME =      0.29

       Convergence iterations:
         OL   ML   IL     Err/Tol
          1    1    6   24.339    
          2    1    3   2.8667    
          3    1    3  0.84890    

 SENSITIVITY BLOCK LLE-DSTL ROW     6 EVALUATION BEGINS                           TIME =      0.31
      VARY VARIABLES:  0.27778E-01 0.40000    

      UOS BLOCK D102     MODEL: EXTRACT                                           TIME =      0.31

      Convergence iterations:
         OL   IL     Err/Tol
          1    1     0.98550E-06
 

      UOS BLOCK D103     MODEL: RADFRAC                                           TIME =      0.32

       Convergence iterations:
         OL   ML   IL     Err/Tol
          1    1    6   11.554    
          2    1    3   2.2205    
          3    1    3  0.71268    

 SENSITIVITY BLOCK LLE-DSTL ROW     7 EVALUATION BEGINS                           TIME =      0.34
      VARY VARIABLES:  0.27778E-01 0.41000    

      UOS BLOCK D102     MODEL: EXTRACT                                           TIME =      0.34

      Convergence iterations:
         OL   IL     Err/Tol
          1    1     0.67115E-07
 

      UOS BLOCK D103     MODEL: RADFRAC                                           TIME =      0.34

       Convergence iterations:
         OL   ML   IL     Err/Tol
          1    1    5   12.844    
          2    1    2   2.3769    
          3    1    3  0.79037    

 SENSITIVITY BLOCK LLE-DSTL ROW     8 EVALUATION BEGINS                           TIME =      0.36
      VARY VARIABLES:  0.27778E-01 0.42000    

      UOS BLOCK D102     MODEL: EXTRACT                                           TIME =      0.36

      Convergence iterations:
         OL   IL     Err/Tol
          1    1     0.67849E-08
 

      UOS BLOCK D103     MODEL: RADFRAC                                           TIME =      0.37

       Convergence iterations:
         OL   ML   IL     Err/Tol
          1    1    5   14.187    
          2    1    2   2.5212    
          3    1    3  0.84966    

 SENSITIVITY BLOCK LLE-DSTL ROW     9 EVALUATION BEGINS                           TIME =      0.39
      VARY VARIABLES:  0.27778E-01 0.43000    

      UOS BLOCK D102     MODEL: EXTRACT                                           TIME =      0.39

      Convergence iterations:
         OL   IL     Err/Tol
          1    1     0.38831E-09
 

      UOS BLOCK D103     MODEL: RADFRAC                                           TIME =      0.39

       Convergence iterations:
         OL   ML   IL     Err/Tol
          1    1    6   15.635    
          2    1    2   2.6598    
          3    1    2  0.91864    

 SENSITIVITY BLOCK LLE-DSTL ROW    10 EVALUATION BEGINS                           TIME =      0.41
      VARY VARIABLES:  0.27778E-01 0.44000    

      UOS BLOCK D102     MODEL: EXTRACT                                           TIME =      0.41

      Convergence iterations:
         OL   IL     Err/Tol
          1    1     0.17821E-10
 

      UOS BLOCK D103     MODEL: RADFRAC                                           TIME =      0.41

       Convergence iterations:
         OL   ML   IL     Err/Tol
          1    1    6   17.245    
          2    1    3   2.8156    
          3    1    2  0.96675    

 SENSITIVITY BLOCK LLE-DSTL ROW    11 EVALUATION BEGINS                           TIME =      0.43
      VARY VARIABLES:  0.27778E-01 0.45000    

      UOS BLOCK D102     MODEL: EXTRACT                                           TIME =      0.44

      Convergence iterations:
         OL   IL     Err/Tol
          1    1     0.15137E-10
 

      UOS BLOCK D103     MODEL: RADFRAC                                           TIME =      0.44

       Convergence iterations:
         OL   ML   IL     Err/Tol
          1    1    6   19.114    
          2    1    3   3.0283    
          3    1    2   1.0479    
          4    1    3  0.94576E-01

 SENSITIVITY BLOCK LLE-DSTL ROW    12 EVALUATION BEGINS                           TIME =      0.46
      VARY VARIABLES:  0.27778E-01 0.46000    

      UOS BLOCK D102     MODEL: EXTRACT                                           TIME =      0.46

      Convergence iterations:
         OL   IL     Err/Tol
          1    1     0.70707E-11
 

      UOS BLOCK D103     MODEL: RADFRAC                                           TIME =      0.46

       Convergence iterations:
         OL   ML   IL     Err/Tol
          1    1    6   21.441    
          2    1    3   3.3409    
          3    1    2   1.1559    
          4    1    3  0.11714    

 SENSITIVITY BLOCK LLE-DSTL ROW    13 EVALUATION BEGINS                           TIME =      0.49
      VARY VARIABLES:  0.27778E-01 0.47000    

      UOS BLOCK D102     MODEL: EXTRACT                                           TIME =      0.49

      Convergence iterations:
         OL   IL     Err/Tol
          1    1     0.10528E-10
 

      UOS BLOCK D103     MODEL: RADFRAC                                           TIME =      0.49

       Convergence iterations:
         OL   ML   IL     Err/Tol
          1    1    6   24.673    
          2    1    3   3.8809    
          3    1    2   1.3207    
          4    1    3  0.15463    

 SENSITIVITY BLOCK LLE-DSTL ROW    14 EVALUATION BEGINS                           TIME =      0.51
      VARY VARIABLES:  0.27778E-01 0.48000    

      UOS BLOCK D102     MODEL: EXTRACT                                           TIME =      0.51

      Convergence iterations:
         OL   IL     Err/Tol
          1    1     0.80946E-11
 

      UOS BLOCK D103     MODEL: RADFRAC                                           TIME =      0.51

       Convergence iterations:
         OL   ML   IL     Err/Tol
          1    1    6   29.891    
          2    1    3   4.9536    
          3    1    3   1.6092    
          4    1    3  0.22189    

 SENSITIVITY BLOCK LLE-DSTL ROW    15 EVALUATION BEGINS                           TIME =      0.53
      VARY VARIABLES:  0.27778E-01 0.49000    

      UOS BLOCK D102     MODEL: EXTRACT                                           TIME =      0.54

      Convergence iterations:
         OL   IL     Err/Tol
          1    1     0.99042E-11
 

      UOS BLOCK D103     MODEL: RADFRAC                                           TIME =      0.54

       Convergence iterations:
         OL   ML   IL     Err/Tol
          1    1    7   70.439    
          2    1    3   15.572    
          3    1    3   4.3098    
          4    1    3  0.71026    

 SENSITIVITY BLOCK LLE-DSTL ROW    16 EVALUATION BEGINS                           TIME =      0.57
      VARY VARIABLES:  0.27778E-01 0.50000    

      UOS BLOCK D102     MODEL: EXTRACT                                           TIME =      0.57

      Convergence iterations:
         OL   IL     Err/Tol
          1    1     0.87278E-11
 

      UOS BLOCK D103     MODEL: RADFRAC                                           TIME =      0.57

       Convergence iterations:
         OL   ML   IL     Err/Tol
          1    1    8   212.88    
          2    1    3   49.261    
          3    1    2   15.511    
          4    1    3   2.1977    
          5    1    3  0.79506    

 SENSITIVITY BLOCK LLE-DSTL ROW    17 EVALUATION BEGINS                           TIME =      0.60
      VARY VARIABLES:  0.27778E-01 0.51000    

      UOS BLOCK D102     MODEL: EXTRACT                                           TIME =      0.60

      Convergence iterations:
         OL   IL     Err/Tol
          1    1     0.18101E-10
 

      UOS BLOCK D103     MODEL: RADFRAC                                           TIME =      0.61

       Convergence iterations:
         OL   ML   IL     Err/Tol
          1    1    5   13.728    
          2    1    3   1.3097    
          3    1    4  0.61215    

  **  ERROR WHILE EXECUTING UNIT OPERATIONS BLOCK: "D103" (MODEL: "RADFRAC")    
                                                               (UDL03Z.7)       
      LIQUID-LIQUID PHASE SPLIT CALCULATIONS FAILED TO CONVERGE.                
      FINAL RESULTS MAY NOT SATISFY LIQUID-LIQUID PHASE EQUILIBRIUM.            

 SENSITIVITY BLOCK LLE-DSTL ROW    18 EVALUATION BEGINS                           TIME =      0.63
      VARY VARIABLES:  0.27778E-01 0.52000    

      UOS BLOCK D102     MODEL: EXTRACT                                           TIME =      0.63

      Convergence iterations:
         OL   IL     Err/Tol
          1    1     0.98694E-11
 

      UOS BLOCK D103     MODEL: RADFRAC                                           TIME =      0.63

       Convergence iterations:
         OL   ML   IL     Err/Tol
          1    1    2   2.8009    
          2    1    3   1.9088    
          3    1    3  0.96578    

 SENSITIVITY BLOCK LLE-DSTL ROW    19 EVALUATION BEGINS                           TIME =      0.64
      VARY VARIABLES:  0.27778E-01 0.53000    

      UOS BLOCK D102     MODEL: EXTRACT                                           TIME =      0.65

      Convergence iterations:
         OL   IL     Err/Tol
          1    1     0.21924E-10
 

      UOS BLOCK D103     MODEL: RADFRAC                                           TIME =      0.65

       Convergence iterations:
         OL   ML   IL     Err/Tol
          1    1    4   1.0529    
          2    1    3  0.44722    

 SENSITIVITY BLOCK LLE-DSTL ROW    20 EVALUATION BEGINS                           TIME =      0.66
      VARY VARIABLES:  0.27778E-01 0.54000    

      UOS BLOCK D102     MODEL: EXTRACT                                           TIME =      0.66

      Convergence iterations:
         OL   IL     Err/Tol
          1    1     0.45722E-11
 

      UOS BLOCK D103     MODEL: RADFRAC                                           TIME =      0.66

       Convergence iterations:
         OL   ML   IL     Err/Tol
          1    1    3  0.15425    

 SENSITIVITY BLOCK LLE-DSTL ROW    21 EVALUATION BEGINS                           TIME =      0.68
      VARY VARIABLES:  0.27778E-01 0.55000    

      UOS BLOCK D102     MODEL: EXTRACT                                           TIME =      0.68

      Convergence iterations:
         OL   IL     Err/Tol
          1    1     0.19234E-10
 

      UOS BLOCK D103     MODEL: RADFRAC                                           TIME =      0.68

       Convergence iterations:
         OL   ML   IL     Err/Tol
          1    1    2  0.35208E-01

 SENSITIVITY BLOCK LLE-DSTL ROW    22 EVALUATION BEGINS                           TIME =      0.69
      VARY VARIABLES:  0.29167E-01 0.35000    

      UOS BLOCK D102     MODEL: EXTRACT                                           TIME =      0.69

      Convergence iterations:
         OL   IL     Err/Tol
          1    6      15.013    
 
          2    2     0.23032    
 

      UOS BLOCK D103     MODEL: RADFRAC                                           TIME =      0.69

       Convergence iterations:
         OL   ML   IL     Err/Tol
          1    1    8   443.29    
          2    1    4   219.15    
          3    1    4   144.89    
          4    1    4   41.363    
          5    1    4   30.040    
          6    1    3   4.3315    
          7    1    3   1.4793    
          8    1    3  0.19565    

  *   WARNING WHILE EXECUTING UNIT OPERATIONS BLOCK: "D103" (MODEL: "RADFRAC")  
                                                               (CHKSTB.1)       
      THE LIQUID PHASE MAY BE UNSTABLE ON ONE OR MORE STAGES.                   
      COMPONENT "WATER" STABILITY INDEX IS (1.14762) ON STAGE (3)               
      WITH MOLE FRACTION (0.405982E-01).                                        

 SENSITIVITY BLOCK LLE-DSTL ROW    23 EVALUATION BEGINS                           TIME =      0.73
      VARY VARIABLES:  0.29167E-01 0.36000    

      UOS BLOCK D102     MODEL: EXTRACT                                           TIME =      0.73

      Convergence iterations:
         OL   IL     Err/Tol
          1    1     0.75463E-01
 

      UOS BLOCK D103     MODEL: RADFRAC                                           TIME =      0.73

       Convergence iterations:
         OL   ML   IL     Err/Tol
          1    1    6   38.684    
          2    1    4   13.569    
          3    1    3   5.3304    
          4    1    4   1.4824    
          5    1    3  0.41799    

  *   WARNING WHILE EXECUTING UNIT OPERATIONS BLOCK: "D103" (MODEL: "RADFRAC")  
                                                               (CHKSTB.1)       
      THE LIQUID PHASE MAY BE UNSTABLE ON ONE OR MORE STAGES.                   
      COMPONENT "WATER" STABILITY INDEX IS (1.13205) ON STAGE (5)               
      WITH MOLE FRACTION (0.411964E-01).                                        

 SENSITIVITY BLOCK LLE-DSTL ROW    24 EVALUATION BEGINS                           TIME =      0.76
      VARY VARIABLES:  0.29167E-01 0.37000    

      UOS BLOCK D102     MODEL: EXTRACT                                           TIME =      0.76

      Convergence iterations:
         OL   IL     Err/Tol
          1    1     0.37743E-02
 

      UOS BLOCK D103     MODEL: RADFRAC                                           TIME =      0.76

       Convergence iterations:
         OL   ML   IL     Err/Tol
          1    1   10   580.52    
          2    1    9   2778.6    
          3    1    7   817.90    
          4    1    4   586.39    
          5    1    4   549.03    
          6    1    4   373.61    
          7    1    3   217.24    
          8    1    5   151.74    
          9    1    4   135.45    
         10    1    3   40.636    
         11    1    3   25.056    
         12    1    3   7.6676    
         13    1    2   1.7422    
         14    1    3  0.35795    

  *   WARNING WHILE EXECUTING UNIT OPERATIONS BLOCK: "D103" (MODEL: "RADFRAC")  
                                                               (CHKSTB.1)       
      THE LIQUID PHASE MAY BE UNSTABLE ON ONE OR MORE STAGES.                   
      COMPONENT "WATER" STABILITY INDEX IS (1.13180) ON STAGE (2)               
      WITH MOLE FRACTION (0.411807E-01).                                        

 SENSITIVITY BLOCK LLE-DSTL ROW    25 EVALUATION BEGINS                           TIME =      0.82
      VARY VARIABLES:  0.29167E-01 0.38000    

      UOS BLOCK D102     MODEL: EXTRACT                                           TIME =      0.82

      Convergence iterations:
         OL   IL     Err/Tol
          1    1     0.38280E-03
 

      UOS BLOCK D103     MODEL: RADFRAC                                           TIME =      0.83

       Convergence iterations:
         OL   ML   IL     Err/Tol
          1    1    6   22.399    
          2    1    2   2.8742    
          3    1    3  0.97364    

 SENSITIVITY BLOCK LLE-DSTL ROW    26 EVALUATION BEGINS                           TIME =      0.85
      VARY VARIABLES:  0.29167E-01 0.39000    

      UOS BLOCK D102     MODEL: EXTRACT                                           TIME =      0.85

      Convergence iterations:
         OL   IL     Err/Tol
          1    1     0.21721E-04
 

      UOS BLOCK D103     MODEL: RADFRAC                                           TIME =      0.86

       Convergence iterations:
         OL   ML   IL     Err/Tol
          1    1    6   8.9859    
          2    1    3   1.7967    
          3    1    3  0.55657    

 SENSITIVITY BLOCK LLE-DSTL ROW    27 EVALUATION BEGINS                           TIME =      0.88
      VARY VARIABLES:  0.29167E-01 0.40000    

      UOS BLOCK D102     MODEL: EXTRACT                                           TIME =      0.88

      Convergence iterations:
         OL   IL     Err/Tol
          1    1     0.70094E-06
 

      UOS BLOCK D103     MODEL: RADFRAC                                           TIME =      0.88

       Convergence iterations:
         OL   ML   IL     Err/Tol
          1    1    6   10.022    
          2    1    3   1.9238    
          3    1    3  0.60747    

 SENSITIVITY BLOCK LLE-DSTL ROW    28 EVALUATION BEGINS                           TIME =      0.90
      VARY VARIABLES:  0.29167E-01 0.41000    

      UOS BLOCK D102     MODEL: EXTRACT                                           TIME =      0.90

      Convergence iterations:
         OL   IL     Err/Tol
          1    1     0.54779E-07
 

      UOS BLOCK D103     MODEL: RADFRAC                                           TIME =      0.91

       Convergence iterations:
         OL   ML   IL     Err/Tol
          1    1    5   11.111    
          2    1    2   2.0590    
          3    1    2  0.67420    

 SENSITIVITY BLOCK LLE-DSTL ROW    29 EVALUATION BEGINS                           TIME =      0.93
      VARY VARIABLES:  0.29167E-01 0.42000    

      UOS BLOCK D102     MODEL: EXTRACT                                           TIME =      0.93

      Convergence iterations:
         OL   IL     Err/Tol
          1    1     0.49847E-08
 

      UOS BLOCK D103     MODEL: RADFRAC                                           TIME =      0.93

       Convergence iterations:
         OL   ML   IL     Err/Tol
          1    1    5   12.265    
          2    1    2   2.1900    
          3    1    3  0.72866    

 SENSITIVITY BLOCK LLE-DSTL ROW    30 EVALUATION BEGINS                           TIME =      0.95
      VARY VARIABLES:  0.29167E-01 0.43000    

      UOS BLOCK D102     MODEL: EXTRACT                                           TIME =      0.95

      Convergence iterations:
         OL   IL     Err/Tol
          1    1     0.26345E-09
 

      UOS BLOCK D103     MODEL: RADFRAC                                           TIME =      0.95

       Convergence iterations:
         OL   ML   IL     Err/Tol
          1    1    5   13.501    
          2    1    2   2.3251    
          3    1    3  0.78250    

 SENSITIVITY BLOCK LLE-DSTL ROW    31 EVALUATION BEGINS                           TIME =      0.97
      VARY VARIABLES:  0.29167E-01 0.44000    

      UOS BLOCK D102     MODEL: EXTRACT                                           TIME =      0.97

      Convergence iterations:
         OL   IL     Err/Tol
          1    1     0.93888E-11
 

      UOS BLOCK D103     MODEL: RADFRAC                                           TIME =      0.97

       Convergence iterations:
         OL   ML   IL     Err/Tol
          1    1    6   14.854    
          2    1    3   2.4484    
          3    1    2  0.82753    

 SENSITIVITY BLOCK LLE-DSTL ROW    32 EVALUATION BEGINS                           TIME =      0.99
      VARY VARIABLES:  0.29167E-01 0.45000    

      UOS BLOCK D102     MODEL: EXTRACT                                           TIME =      0.99

      Convergence iterations:
         OL   IL     Err/Tol
          1    1     0.95236E-11
 

      UOS BLOCK D103     MODEL: RADFRAC                                           TIME =      1.00

       Convergence iterations:
         OL   ML   IL     Err/Tol
          1    1    6   16.384    
          2    1    3   2.6185    
          3    1    2  0.89289    

 SENSITIVITY BLOCK LLE-DSTL ROW    33 EVALUATION BEGINS                           TIME =      1.02
      VARY VARIABLES:  0.29167E-01 0.46000    

      UOS BLOCK D102     MODEL: EXTRACT                                           TIME =      1.02

      Convergence iterations:
         OL   IL     Err/Tol
          1    1     0.78427E-11
 

      UOS BLOCK D103     MODEL: RADFRAC                                           TIME =      1.02

       Convergence iterations:
         OL   ML   IL     Err/Tol
          1    1    6   18.202    
          2    1    3   2.8429    
          3    1    2  0.97396    

 SENSITIVITY BLOCK LLE-DSTL ROW    34 EVALUATION BEGINS                           TIME =      1.04
      VARY VARIABLES:  0.29167E-01 0.47000    

      UOS BLOCK D102     MODEL: EXTRACT                                           TIME =      1.04

      Convergence iterations:
         OL   IL     Err/Tol
          1    1     0.99950E-11
 

      UOS BLOCK D103     MODEL: RADFRAC                                           TIME =      1.04

       Convergence iterations:
         OL   ML   IL     Err/Tol
          1    1    6   20.535    
          2    1    3   3.1881    
          3    1    2   1.0855    
          4    1    3  0.11209    

 SENSITIVITY BLOCK LLE-DSTL ROW    35 EVALUATION BEGINS                           TIME =      1.06
      VARY VARIABLES:  0.29167E-01 0.48000    

      UOS BLOCK D102     MODEL: EXTRACT                                           TIME =      1.06

      Convergence iterations:
         OL   IL     Err/Tol
          1    1     0.11709E-10
 

      UOS BLOCK D103     MODEL: RADFRAC                                           TIME =      1.06

       Convergence iterations:
         OL   ML   IL     Err/Tol
          1    1    6   36.314    
          2    1    3   7.0718    
          3    1    3   1.9991    
          4    1    3  0.32478    

 SENSITIVITY BLOCK LLE-DSTL ROW    36 EVALUATION BEGINS                           TIME =      1.09
      VARY VARIABLES:  0.29167E-01 0.49000    

      UOS BLOCK D102     MODEL: EXTRACT                                           TIME =      1.09

      Convergence iterations:
         OL   IL     Err/Tol
          1    1     0.89362E-11
 

      UOS BLOCK D103     MODEL: RADFRAC                                           TIME =      1.09

       Convergence iterations:
         OL   ML   IL     Err/Tol
          1    1    6   44.845    
          2    1    3   11.572    
          3    1    2   3.2449    
          4    1    3  0.50249    

 SENSITIVITY BLOCK LLE-DSTL ROW    37 EVALUATION BEGINS                           TIME =      1.11
      VARY VARIABLES:  0.29167E-01 0.50000    

      UOS BLOCK D102     MODEL: EXTRACT                                           TIME =      1.11

      Convergence iterations:
         OL   IL     Err/Tol
          1    1     0.10015E-10
 

      UOS BLOCK D103     MODEL: RADFRAC                                           TIME =      1.12

       Convergence iterations:
         OL   ML   IL     Err/Tol
          1    1    7   95.776    
          2    1    3   22.842    
          3    1    2   6.8142    
          4    1    3  0.82349    

 SENSITIVITY BLOCK LLE-DSTL ROW    38 EVALUATION BEGINS                           TIME =      1.14
      VARY VARIABLES:  0.29167E-01 0.51000    

      UOS BLOCK D102     MODEL: EXTRACT                                           TIME =      1.14

      Convergence iterations:
         OL   IL     Err/Tol
          1    1     0.14839E-10
 

      UOS BLOCK D103     MODEL: RADFRAC                                           TIME =      1.15

       Convergence iterations:
         OL   ML   IL     Err/Tol
          1    1    7   286.98    
          2    1    4   66.387    
          3    1    3   24.279    
          4    1    4   4.9845    
          5    1    3   2.1533    
          6    1    3  0.82936    

 SENSITIVITY BLOCK LLE-DSTL ROW    39 EVALUATION BEGINS                           TIME =      1.18
      VARY VARIABLES:  0.29167E-01 0.52000    

      UOS BLOCK D102     MODEL: EXTRACT                                           TIME =      1.18

      Convergence iterations:
         OL   IL     Err/Tol
          1    1     0.97382E-11
 

      UOS BLOCK D103     MODEL: RADFRAC                                           TIME =      1.18

       Convergence iterations:
         OL   ML   IL     Err/Tol
          1    1    4   37.558    
          2    1    3   26.387    
          3    1    2   17.675    
          4    1    3   6.8358    
          5    1    2  0.65343    

 SENSITIVITY BLOCK LLE-DSTL ROW    40 EVALUATION BEGINS                           TIME =      1.20
      VARY VARIABLES:  0.29167E-01 0.53000    

      UOS BLOCK D102     MODEL: EXTRACT                                           TIME =      1.20

      Convergence iterations:
         OL   IL     Err/Tol
          1    1     0.93838E-11
 

      UOS BLOCK D103     MODEL: RADFRAC                                           TIME =      1.20

       Convergence iterations:
         OL   ML   IL     Err/Tol
          1    1   10   173.72    
          2    1    4   120.22    
          3    1    3   43.455    
          4    1    3   32.810    
          5    1    2   7.9767    
          6    1    2  0.34689    

 SENSITIVITY BLOCK LLE-DSTL ROW    41 EVALUATION BEGINS                           TIME =      1.22
      VARY VARIABLES:  0.29167E-01 0.54000    

      UOS BLOCK D102     MODEL: EXTRACT                                           TIME =      1.22

      Convergence iterations:
         OL   IL     Err/Tol
          1    1     0.26363E-10
 

      UOS BLOCK D103     MODEL: RADFRAC                                           TIME =      1.22

       Convergence iterations:
         OL   ML   IL     Err/Tol
          1    1    3  0.63071    

 SENSITIVITY BLOCK LLE-DSTL ROW    42 EVALUATION BEGINS                           TIME =      1.23
      VARY VARIABLES:  0.29167E-01 0.55000    

      UOS BLOCK D102     MODEL: EXTRACT                                           TIME =      1.23

      Convergence iterations:
         OL   IL     Err/Tol
          1    1     0.28025E-10
 

      UOS BLOCK D103     MODEL: RADFRAC                                           TIME =      1.23

       Convergence iterations:
         OL   ML   IL     Err/Tol
          1    1    3  0.10877    

 SENSITIVITY BLOCK LLE-DSTL ROW    43 EVALUATION BEGINS                           TIME =      1.24
      VARY VARIABLES:  0.30556E-01 0.35000    

      UOS BLOCK D102     MODEL: EXTRACT                                           TIME =      1.25

      Convergence iterations:
         OL   IL     Err/Tol
          1    6      14.574    
 
          2    2     0.21123    
 

      UOS BLOCK D103     MODEL: RADFRAC                                           TIME =      1.25

       Convergence iterations:
         OL   ML   IL     Err/Tol
          1    1   10   2313.0    
          2    1    5   806.40    
          3    1    4   575.42    
          4    1    4   508.11    
          5    1    2   320.24    
          6    1    3   121.34    
          7    1    2   14.958    
          8    1    4   1.9185    
          9    1    3  0.66363    

  *   WARNING WHILE EXECUTING UNIT OPERATIONS BLOCK: "D103" (MODEL: "RADFRAC")  
                                                               (CHKSTB.1)       
      THE LIQUID PHASE MAY BE UNSTABLE ON ONE OR MORE STAGES.                   
      COMPONENT "WATER" STABILITY INDEX IS (1.13197) ON STAGE (3)               
      WITH MOLE FRACTION (0.411877E-01).                                        

 SENSITIVITY BLOCK LLE-DSTL ROW    44 EVALUATION BEGINS                           TIME =      1.29
      VARY VARIABLES:  0.30556E-01 0.36000    

      UOS BLOCK D102     MODEL: EXTRACT                                           TIME =      1.29

      Convergence iterations:
         OL   IL     Err/Tol
          1    1     0.68354E-01
 

      UOS BLOCK D103     MODEL: RADFRAC                                           TIME =      1.29

       Convergence iterations:
         OL   ML   IL     Err/Tol
          1    1    7   40.753    
          2    1    4   13.135    
          3    1    3   7.9539    
          4    1    3   1.1425    
          5    1    4  0.95391    

  *   WARNING WHILE EXECUTING UNIT OPERATIONS BLOCK: "D103" (MODEL: "RADFRAC")  
                                                               (CHKSTB.1)       
      THE LIQUID PHASE MAY BE UNSTABLE ON ONE OR MORE STAGES.                   
      COMPONENT "WATER" STABILITY INDEX IS (1.13284) ON STAGE (3)               
      WITH MOLE FRACTION (0.411657E-01).                                        

 SENSITIVITY BLOCK LLE-DSTL ROW    45 EVALUATION BEGINS                           TIME =      1.32
      VARY VARIABLES:  0.30556E-01 0.37000    

      UOS BLOCK D102     MODEL: EXTRACT                                           TIME =      1.32

      Convergence iterations:
         OL   IL     Err/Tol
          1    1     0.31191E-02
 

      UOS BLOCK D103     MODEL: RADFRAC                                           TIME =      1.32

       Convergence iterations:
         OL   ML   IL     Err/Tol
          1    1    8   83.052    
          2    1    3   23.900    
          3    1    3   48.622    
          4    1    2   18.414    
          5    1    3   51.747    
          6    1    3   13.949    
          7    1    3   52.450    
          8    1    3   11.741    
          9    1    3   2.7840    
         10    1    3  0.64050    

 SENSITIVITY BLOCK LLE-DSTL ROW    46 EVALUATION BEGINS                           TIME =      1.36
      VARY VARIABLES:  0.30556E-01 0.38000    

      UOS BLOCK D102     MODEL: EXTRACT                                           TIME =      1.36

      Convergence iterations:
         OL   IL     Err/Tol
          1    1     0.31412E-03
 

      UOS BLOCK D103     MODEL: RADFRAC                                           TIME =      1.36

       Convergence iterations:
         OL   ML   IL     Err/Tol
          1    1    6   6.9659    
          2    1    3   1.4381    
          3    1    2  0.43017    

 SENSITIVITY BLOCK LLE-DSTL ROW    47 EVALUATION BEGINS                           TIME =      1.38
      VARY VARIABLES:  0.30556E-01 0.39000    

      UOS BLOCK D102     MODEL: EXTRACT                                           TIME =      1.38

      Convergence iterations:
         OL   IL     Err/Tol
          1    1     0.17487E-04
 

      UOS BLOCK D103     MODEL: RADFRAC                                           TIME =      1.39

       Convergence iterations:
         OL   ML   IL     Err/Tol
          1    1    6   7.8193    
          2    1    3   1.5555    
          3    1    2  0.47544    

 SENSITIVITY BLOCK LLE-DSTL ROW    48 EVALUATION BEGINS                           TIME =      1.41
      VARY VARIABLES:  0.30556E-01 0.40000    

      UOS BLOCK D102     MODEL: EXTRACT                                           TIME =      1.41

      Convergence iterations:
         OL   IL     Err/Tol
          1    1     0.54786E-06
 

      UOS BLOCK D103     MODEL: RADFRAC                                           TIME =      1.41

       Convergence iterations:
         OL   ML   IL     Err/Tol
          1    1    6   8.7164    
          2    1    3   1.6707    
          3    1    2  0.52046    

 SENSITIVITY BLOCK LLE-DSTL ROW    49 EVALUATION BEGINS                           TIME =      1.43
      VARY VARIABLES:  0.30556E-01 0.41000    

      UOS BLOCK D102     MODEL: EXTRACT                                           TIME =      1.43

      Convergence iterations:
         OL   IL     Err/Tol
          1    1     0.42609E-07
 

      UOS BLOCK D103     MODEL: RADFRAC                                           TIME =      1.44

       Convergence iterations:
         OL   ML   IL     Err/Tol
          1    1    5   9.6601    
          2    1    2   1.7917    
          3    1    2  0.57818    

 SENSITIVITY BLOCK LLE-DSTL ROW    50 EVALUATION BEGINS                           TIME =      1.45
      VARY VARIABLES:  0.30556E-01 0.42000    

      UOS BLOCK D102     MODEL: EXTRACT                                           TIME =      1.45

      Convergence iterations:
         OL   IL     Err/Tol
          1    1     0.36849E-08
 

      UOS BLOCK D103     MODEL: RADFRAC                                           TIME =      1.46

       Convergence iterations:
         OL   ML   IL     Err/Tol
          1    1    5   10.660    
          2    1    2   1.9105    
          3    1    2  0.62603    

 SENSITIVITY BLOCK LLE-DSTL ROW    51 EVALUATION BEGINS                           TIME =      1.47
      VARY VARIABLES:  0.30556E-01 0.43000    

      UOS BLOCK D102     MODEL: EXTRACT                                           TIME =      1.48

      Convergence iterations:
         OL   IL     Err/Tol
          1    1     0.18198E-09
 

      UOS BLOCK D103     MODEL: RADFRAC                                           TIME =      1.48

       Convergence iterations:
         OL   ML   IL     Err/Tol
          1    1    5   11.728    
          2    1    2   2.0322    
          3    1    3  0.67519    

 SENSITIVITY BLOCK LLE-DSTL ROW    52 EVALUATION BEGINS                           TIME =      1.50
      VARY VARIABLES:  0.30556E-01 0.44000    

      UOS BLOCK D102     MODEL: EXTRACT                                           TIME =      1.50

      Convergence iterations:
         OL   IL     Err/Tol
          1    1     0.85185E-11
 

      UOS BLOCK D103     MODEL: RADFRAC                                           TIME =      1.50

       Convergence iterations:
         OL   ML   IL     Err/Tol
          1    1    5   12.887    
          2    1    2   2.1609    
          3    1    3  0.72512    

 SENSITIVITY BLOCK LLE-DSTL ROW    53 EVALUATION BEGINS                           TIME =      1.52
      VARY VARIABLES:  0.30556E-01 0.45000    

      UOS BLOCK D102     MODEL: EXTRACT                                           TIME =      1.52

      Convergence iterations:
         OL   IL     Err/Tol
          1    1     0.24566E-10
 

      UOS BLOCK D103     MODEL: RADFRAC                                           TIME =      1.53

       Convergence iterations:
         OL   ML   IL     Err/Tol
          1    1    6   14.172    
          2    1    3   2.2844    
          3    1    2  0.76718    

 SENSITIVITY BLOCK LLE-DSTL ROW    54 EVALUATION BEGINS                           TIME =      1.55
      VARY VARIABLES:  0.30556E-01 0.46000    

      UOS BLOCK D102     MODEL: EXTRACT                                           TIME =      1.55

      Convergence iterations:
         OL   IL     Err/Tol
          1    1     0.10564E-10
 

      UOS BLOCK D103     MODEL: RADFRAC                                           TIME =      1.55

       Convergence iterations:
         OL   ML   IL     Err/Tol
          1    1    6   15.650    
          2    1    3   2.4578    
          3    1    2  0.83149    

 SENSITIVITY BLOCK LLE-DSTL ROW    55 EVALUATION BEGINS                           TIME =      1.57
      VARY VARIABLES:  0.30556E-01 0.47000    

      UOS BLOCK D102     MODEL: EXTRACT                                           TIME =      1.57

      Convergence iterations:
         OL   IL     Err/Tol
          1    1     0.12541E-10
 

      UOS BLOCK D103     MODEL: RADFRAC                                           TIME =      1.58

       Convergence iterations:
         OL   ML   IL     Err/Tol
          1    1    6   22.712    
          2    1    3   3.9486    
          3    1    3   1.1704    
          4    1    3  0.17543    

 SENSITIVITY BLOCK LLE-DSTL ROW    56 EVALUATION BEGINS                           TIME =      1.60
      VARY VARIABLES:  0.30556E-01 0.48000    

      UOS BLOCK D102     MODEL: EXTRACT                                           TIME =      1.60

      Convergence iterations:
         OL   IL     Err/Tol
          1    1     0.11485E-10
 

      UOS BLOCK D103     MODEL: RADFRAC                                           TIME =      1.60

       Convergence iterations:
         OL   ML   IL     Err/Tol
          1    1    6   20.331    
          2    1    3   5.2446    
          3    1    2   1.3597    
          4    1    3  0.20116    

 SENSITIVITY BLOCK LLE-DSTL ROW    57 EVALUATION BEGINS                           TIME =      1.63
      VARY VARIABLES:  0.30556E-01 0.49000    

      UOS BLOCK D102     MODEL: EXTRACT                                           TIME =      1.63

      Convergence iterations:
         OL   IL     Err/Tol
          1    1     0.81703E-11
 

      UOS BLOCK D103     MODEL: RADFRAC                                           TIME =      1.63

       Convergence iterations:
         OL   ML   IL     Err/Tol
          1    1    7   34.839    
          2    1    3   8.7863    
          3    1    3   2.4314    
          4    1    3  0.31343    

 SENSITIVITY BLOCK LLE-DSTL ROW    58 EVALUATION BEGINS                           TIME =      1.66
      VARY VARIABLES:  0.30556E-01 0.50000    

      UOS BLOCK D102     MODEL: EXTRACT                                           TIME =      1.66

      Convergence iterations:
         OL   IL     Err/Tol
          1    1     0.70541E-11
 

      UOS BLOCK D103     MODEL: RADFRAC                                           TIME =      1.67

       Convergence iterations:
         OL   ML   IL     Err/Tol
          1    1    6   48.929    
          2    1    2   12.062    
          3    1    3   3.7008    
          4    1    2  0.41080    

 SENSITIVITY BLOCK LLE-DSTL ROW    59 EVALUATION BEGINS                           TIME =      1.70
      VARY VARIABLES:  0.30556E-01 0.51000    

      UOS BLOCK D102     MODEL: EXTRACT                                           TIME =      1.70

      Convergence iterations:
         OL   IL     Err/Tol
          1    1     0.20474E-10
 

      UOS BLOCK D103     MODEL: RADFRAC                                           TIME =      1.70

       Convergence iterations:
         OL   ML   IL     Err/Tol
          1    1    6   96.854    
          2    1    2   23.107    
          3    1    3   7.8782    
          4    1    3   1.2426    
          5    1    3  0.33672    

 SENSITIVITY BLOCK LLE-DSTL ROW    60 EVALUATION BEGINS                           TIME =      1.73
      VARY VARIABLES:  0.30556E-01 0.52000    

      UOS BLOCK D102     MODEL: EXTRACT                                           TIME =      1.73

      Convergence iterations:
         OL   IL     Err/Tol
          1    1     0.23441E-10
 

      UOS BLOCK D103     MODEL: RADFRAC                                           TIME =      1.74

       Convergence iterations:
         OL   ML   IL     Err/Tol
          1    1    8   318.87    
          2    1    3   92.273    
          3    1    3   52.833    
          4    1    3   8.7570    
          5    1    3   3.5319    
          6    1    4  0.71550    

 SENSITIVITY BLOCK LLE-DSTL ROW    61 EVALUATION BEGINS                           TIME =      1.77
      VARY VARIABLES:  0.30556E-01 0.53000    

      UOS BLOCK D102     MODEL: EXTRACT                                           TIME =      1.77

      Convergence iterations:
         OL   IL     Err/Tol
          1    1     0.69211E-11
 

      UOS BLOCK D103     MODEL: RADFRAC                                           TIME =      1.77

       Convergence iterations:
         OL   ML   IL     Err/Tol
          1    1    3   75.650    
          2    1    3   44.952    
          3    1    2   17.873    
          4    1    3   4.5863    
          5    1    2   3.1491    
          6    1    2   2.1118    
          7    1    2   1.0279    
          8    1    2  0.24380    

 SENSITIVITY BLOCK LLE-DSTL ROW    62 EVALUATION BEGINS                           TIME =      1.79
      VARY VARIABLES:  0.30556E-01 0.54000    

      UOS BLOCK D102     MODEL: EXTRACT                                           TIME =      1.79

      Convergence iterations:
         OL   IL     Err/Tol
          1    1     0.71815E-11
 

      UOS BLOCK D103     MODEL: RADFRAC                                           TIME =      1.80

       Convergence iterations:
         OL   ML   IL     Err/Tol
          1    1    5   70.902    
          2    1    4   48.888    
          3    1    3   22.671    
          4    1    3   3.6991    
          5    1    3  0.75143    

 SENSITIVITY BLOCK LLE-DSTL ROW    63 EVALUATION BEGINS                           TIME =      1.81
      VARY VARIABLES:  0.30556E-01 0.55000    

      UOS BLOCK D102     MODEL: EXTRACT                                           TIME =      1.81

      Convergence iterations:
         OL   IL     Err/Tol
          1    1     0.13147E-10
 

      UOS BLOCK D103     MODEL: RADFRAC                                           TIME =      1.82

       Convergence iterations:
         OL   ML   IL     Err/Tol
          1    1    3  0.38368    

 SENSITIVITY BLOCK LLE-DSTL ROW    64 EVALUATION BEGINS                           TIME =      1.82
      VARY VARIABLES:  0.31944E-01 0.35000    

      UOS BLOCK D102     MODEL: EXTRACT                                           TIME =      1.82

      Convergence iterations:
         OL   IL     Err/Tol
          1    5      14.152    
 
          2    2     0.19433    
 

      UOS BLOCK D103     MODEL: RADFRAC                                           TIME =      1.83

       Convergence iterations:
         OL   ML   IL     Err/Tol
          1    1    9   2164.3    
          2    1   10   3261.1    
          3    1    6   2632.3    
          4    1    5   1221.9    
          5    1    3   640.53    
          6    1    4   470.78    
          7    1    4   291.21    
          8    1    2   26.711    
          9    1    3   7.5879    
         10    1    4   4.9278    
         11    1    2  0.36895    

  *   WARNING WHILE EXECUTING UNIT OPERATIONS BLOCK: "D103" (MODEL: "RADFRAC")  
                                                               (CHKSTB.1)       
      THE LIQUID PHASE MAY BE UNSTABLE ON ONE OR MORE STAGES.                   
      COMPONENT "WATER" STABILITY INDEX IS (1.13364) ON STAGE (2)               
      WITH MOLE FRACTION (0.411227E-01).                                        

 SENSITIVITY BLOCK LLE-DSTL ROW    65 EVALUATION BEGINS                           TIME =      1.87
      VARY VARIABLES:  0.31944E-01 0.36000    

      UOS BLOCK D102     MODEL: EXTRACT                                           TIME =      1.87

      Convergence iterations:
         OL   IL     Err/Tol
          1    1     0.63073E-01
 

      UOS BLOCK D103     MODEL: RADFRAC                                           TIME =      1.88

       Convergence iterations:
         OL   ML   IL     Err/Tol
          1    1    6   18.137    
          2    1    2   1.8762    
          3    1    3  0.61007    

 SENSITIVITY BLOCK LLE-DSTL ROW    66 EVALUATION BEGINS                           TIME =      1.90
      VARY VARIABLES:  0.31944E-01 0.37000    

      UOS BLOCK D102     MODEL: EXTRACT                                           TIME =      1.90

      Convergence iterations:
         OL   IL     Err/Tol
          1    1     0.28660E-02
 

      UOS BLOCK D103     MODEL: RADFRAC                                           TIME =      1.90

       Convergence iterations:
         OL   ML   IL     Err/Tol
          1    1    6   5.4076    
          2    1    3   1.1439    
          3    1    2  0.32928    

 SENSITIVITY BLOCK LLE-DSTL ROW    67 EVALUATION BEGINS                           TIME =      1.92
      VARY VARIABLES:  0.31944E-01 0.38000    

      UOS BLOCK D102     MODEL: EXTRACT                                           TIME =      1.92

      Convergence iterations:
         OL   IL     Err/Tol
          1    1     0.27594E-03
 

      UOS BLOCK D103     MODEL: RADFRAC                                           TIME =      1.92

       Convergence iterations:
         OL   ML   IL     Err/Tol
          1    1    6   6.0952    
          2    1    3   1.2487    
          3    1    2  0.36826    
[...]
      KODE = 3  NTRIAL =   2  T = 371.8387  P =  100000.      V =  0.00000      BETA = 0.240292      Q =  0.00000    
      KODE = 3  NTRIAL =   2  T = 371.8387  P =  100000.      V =  0.00000      BETA = 0.207726      Q =  0.00000    
      KODE = 3  NTRIAL =   2  T = 371.8387  P =  100000.      V =  0.00000      BETA = 0.175161      Q =  0.00000    
      KODE = 3  NTRIAL =   2  T = 371.8387  P =  100000.      V =  0.00000      BETA = 0.142595      Q =  0.00000    
      KODE = 3  NTRIAL =   2  T = 371.8387  P =  100000.      V =  0.00000      BETA = 0.110030      Q =  0.00000    
      KODE = 3  NTRIAL =   2  T = 371.8387  P =  100000.      V =  0.00000      BETA = 7.746390E-02  Q =  0.00000    
      KODE = 3  NTRIAL =   2  T = 371.8387  P =  100000.      V =  0.00000      BETA = 4.489827E-02  Q =  0.00000    
      KODE = 3  NTRIAL =   2  T = 371.8387  P =  100000.      V =  0.00000      BETA = 1.233264E-02  Q =  0.00000    
      KODE = 3  NTRIAL =   2  T = 372.7276  P =  100000.      V =  0.00000      BETA =  1.00000      Q =  0.00000    

 Results generated                                                                Time =    494.48

 Report Writer entered                                                            Time =    494.89

      BEGIN CALCULATIONS FOR PROP-TABLE BINRY-1                                   TIME =    495.11
      KODE = 3  NTRIAL =   8  T = 596.3156  P = 1.500000E+06  V =  0.00000      BETA =  1.00000      Q =  0.00000    
      KODE = 3  NTRIAL =  11  T = 584.8493  P = 1.500000E+06  V =  0.00000      BETA =  1.00000      Q =  0.00000    
      KODE = 3  NTRIAL =  11  T = 574.2191  P = 1.500000E+06  V =  0.00000      BETA =  1.00000      Q =  0.00000    
      KODE = 3  NTRIAL =  11  T = 564.5782  P = 1.500000E+06  V =  0.00000      BETA =  1.00000      Q =  0.00000    
      KODE = 3  NTRIAL =  11  T = 555.9453  P = 1.500000E+06  V =  0.00000      BETA =  1.00000      Q =  0.00000    
      KODE = 3  NTRIAL =  11  T = 548.2589  P = 1.500000E+06  V =  0.00000      BETA =  1.00000      Q =  0.00000    
      KODE = 3  NTRIAL =  11  T = 541.4223  P = 1.500000E+06  V =  0.00000      BETA =  1.00000      Q =  0.00000    
      KODE = 3  NTRIAL =  11  T = 535.3309  P = 1.500000E+06  V =  0.00000      BETA =  1.00000      Q =  0.00000    
      KODE = 3  NTRIAL =  11  T = 529.8854  P = 1.500000E+06  V =  0.00000      BETA =  1.00000      Q =  0.00000    
      KODE = 3  NTRIAL =  11  T = 524.9978  P = 1.500000E+06  V =  0.00000      BETA =  1.00000      Q =  0.00000    
      KODE = 3  NTRIAL =  11  T = 520.5922  P = 1.500000E+06  V =  0.00000      BETA =  1.00000      Q =  0.00000    
      KODE = 3  NTRIAL =  11  T = 516.6040  P = 1.500000E+06  V =  0.00000      BETA =  1.00000      Q =  0.00000    
      KODE = 3  NTRIAL =  11  T = 512.9791  P = 1.500000E+06  V =  0.00000      BETA =  1.00000      Q =  0.00000    
      KODE = 3  NTRIAL =  10  T = 509.6717  P = 1.500000E+06  V =  0.00000      BETA =  1.00000      Q =  0.00000    
      KODE = 3  NTRIAL =  10  T = 506.6433  P = 1.500000E+06  V =  0.00000      BETA =  1.00000      Q =  0.00000    
      KODE = 3  NTRIAL =  10  T = 503.8613  P = 1.500000E+06  V =  0.00000      BETA =  1.00000      Q =  0.00000    
      KODE = 3  NTRIAL =   9  T = 501.2981  P = 1.500000E+06  V =  0.00000      BETA =  1.00000      Q =  0.00000    
      KODE = 3  NTRIAL =   9  T = 498.9301  P = 1.500000E+06  V =  0.00000      BETA =  1.00000      Q =  0.00000    
      KODE = 3  NTRIAL =   9  T = 496.7370  P = 1.500000E+06  V =  0.00000      BETA =  1.00000      Q =  0.00000    
      KODE = 3  NTRIAL =   9  T = 494.7014  P = 1.500000E+06  V =  0.00000      BETA =  1.00000      Q =  0.00000    
      KODE = 3  NTRIAL =   9  T = 492.8082  P = 1.500000E+06  V =  0.00000      BETA =  1.00000      Q =  0.00000    
      KODE = 3  NTRIAL =   9  T = 491.0443  P = 1.500000E+06  V =  0.00000      BETA =  1.00000      Q =  0.00000    
      KODE = 3  NTRIAL =   9  T = 489.3981  P = 1.500000E+06  V =  0.00000      BETA =  1.00000      Q =  0.00000    
      KODE = 3  NTRIAL =   9  T = 487.8596  P = 1.500000E+06  V =  0.00000      BETA =  1.00000      Q =  0.00000    
      KODE = 3  NTRIAL =   9  T = 486.4199  P = 1.500000E+06  V =  0.00000      BETA =  1.00000      Q =  0.00000    
      KODE = 3  NTRIAL =   9  T = 485.0711  P = 1.500000E+06  V =  0.00000      BETA =  1.00000      Q =  0.00000    
      KODE = 3  NTRIAL =   9  T = 483.8062  P = 1.500000E+06  V =  0.00000      BETA =  1.00000      Q =  0.00000    
      KODE = 3  NTRIAL =   9  T = 482.6190  P = 1.500000E+06  V =  0.00000      BETA =  1.00000      Q =  0.00000    
      KODE = 3  NTRIAL =   9  T = 481.5039  P = 1.500000E+06  V =  0.00000      BETA =  1.00000      Q =  0.00000    
      KODE = 3  NTRIAL =   9  T = 480.4558  P = 1.500000E+06  V =  0.00000      BETA =  1.00000      Q =  0.00000    
      KODE = 3  NTRIAL =   9  T = 479.4703  P = 1.500000E+06  V =  0.00000      BETA =  1.00000      Q =  0.00000    
      KODE = 3  NTRIAL =   9  T = 478.5433  P = 1.500000E+06  V =  0.00000      BETA =  1.00000      Q =  0.00000    
      KODE = 3  NTRIAL =   9  T = 477.6710  P = 1.500000E+06  V =  0.00000      BETA =  1.00000      Q =  0.00000    
      KODE = 3  NTRIAL =   9  T = 476.8501  P = 1.500000E+06  V =  0.00000      BETA =  1.00000      Q =  0.00000    
      KODE = 3  NTRIAL =   9  T = 476.0776  P = 1.500000E+06  V =  0.00000      BETA =  1.00000      Q =  0.00000    
      KODE = 3  NTRIAL =   9  T = 475.3506  P = 1.500000E+06  V =  0.00000      BETA =  1.00000      Q =  0.00000    
      KODE = 3  NTRIAL =   9  T = 474.6666  P = 1.500000E+06  V =  0.00000      BETA =  1.00000      Q =  0.00000    
      KODE = 3  NTRIAL =  28  T = 474.0232  P = 1.500000E+06  V =  0.00000      BETA =  1.00000      Q =  0.00000    
      KODE = 3  NTRIAL =  28  T = 473.4183  P = 1.500000E+06  V =  0.00000      BETA =  1.00000      Q =  0.00000    
      KODE = 3  NTRIAL =  12  T = 472.8499  P = 1.500000E+06  V =  0.00000      BETA =  1.00000      Q =  0.00000    
      KODE = 3  NTRIAL =  11  T = 472.3161  P = 1.500000E+06  V =  0.00000      BETA =  1.00000      Q =  0.00000    
      KODE = 3  NTRIAL =  11  T = 471.8153  P = 1.500000E+06  V =  0.00000      BETA =  1.00000      Q =  0.00000    
      KODE = 3  NTRIAL =  11  T = 471.3459  P = 1.500000E+06  V =  0.00000      BETA =  1.00000      Q =  0.00000    
      KODE = 3  NTRIAL =  11  T = 470.9063  P = 1.500000E+06  V =  0.00000      BETA =  1.00000      Q =  0.00000    
      KODE = 3  NTRIAL =  11  T = 470.4954  P = 1.500000E+06  V =  0.00000      BETA =  1.00000      Q =  0.00000    
      KODE = 3  NTRIAL =  11  T = 470.1117  P = 1.500000E+06  V =  0.00000      BETA =  1.00000      Q =  0.00000    
      KODE = 3  NTRIAL =  11  T = 469.7540  P = 1.500000E+06  V =  0.00000      BETA =  1.00000      Q =  0.00000    
      KODE = 3  NTRIAL =  11  T = 469.4214  P = 1.500000E+06  V =  0.00000      BETA =  1.00000      Q =  0.00000    
      KODE = 3  NTRIAL =  12  T = 469.1127  P = 1.500000E+06  V =  0.00000      BETA =  1.00000      Q =  0.00000    
      KODE = 3  NTRIAL =  13  T = 468.8270  P = 1.500000E+06  V =  0.00000      BETA =  1.00000      Q =  0.00000    
      KODE = 3  NTRIAL =  15  T = 468.6254  P = 1.500000E+06  V =  0.00000      BETA = 0.994869      Q =  0.00000    
      KODE = 3  NTRIAL =   2  T = 468.6254  P = 1.500000E+06  V =  0.00000      BETA = 0.973741      Q =  0.00000    
      KODE = 3  NTRIAL =   2  T = 468.6254  P = 1.500000E+06  V =  0.00000      BETA = 0.952612      Q =  0.00000    
      KODE = 3  NTRIAL =   2  T = 468.6254  P = 1.500000E+06  V =  0.00000      BETA = 0.931483      Q =  0.00000    
      KODE = 3  NTRIAL =   2  T = 468.6254  P = 1.500000E+06  V =  0.00000      BETA = 0.910355      Q =  0.00000    
      KODE = 3  NTRIAL =   2  T = 468.6254  P = 1.500000E+06  V =  0.00000      BETA = 0.889226      Q =  0.00000    
      KODE = 3  NTRIAL =   2  T = 468.6254  P = 1.500000E+06  V =  0.00000      BETA = 0.868097      Q =  0.00000    
      KODE = 3  NTRIAL =   2  T = 468.6254  P = 1.500000E+06  V =  0.00000      BETA = 0.846969      Q =  0.00000    
      KODE = 3  NTRIAL =   2  T = 468.6254  P = 1.500000E+06  V =  0.00000      BETA = 0.825840      Q =  0.00000    
      KODE = 3  NTRIAL =   2  T = 468.6254  P = 1.500000E+06  V =  0.00000      BETA = 0.804711      Q =  0.00000    
      KODE = 3  NTRIAL =   2  T = 468.6254  P = 1.500000E+06  V =  0.00000      BETA = 0.783583      Q =  0.00000    
      KODE = 3  NTRIAL =   2  T = 468.6254  P = 1.500000E+06  V =  0.00000      BETA = 0.762454      Q =  0.00000    
      KODE = 3  NTRIAL =   2  T = 468.6254  P = 1.500000E+06  V =  0.00000      BETA = 0.741325      Q =  0.00000    
      KODE = 3  NTRIAL =   2  T = 468.6254  P = 1.500000E+06  V =  0.00000      BETA = 0.720197      Q =  0.00000    
      KODE = 3  NTRIAL =   2  T = 468.6254  P = 1.500000E+06  V =  0.00000      BETA = 0.699068      Q =  0.00000    
      KODE = 3  NTRIAL =   2  T = 468.6254  P = 1.500000E+06  V =  0.00000      BETA = 0.677939      Q =  0.00000    
      KODE = 3  NTRIAL =   2  T = 468.6254  P = 1.500000E+06  V =  0.00000      BETA = 0.656811      Q =  0.00000    
      KODE = 3  NTRIAL =   2  T = 468.6254  P = 1.500000E+06  V =  0.00000      BETA = 0.635682      Q =  0.00000    
      KODE = 3  NTRIAL =   2  T = 468.6254  P = 1.500000E+06  V =  0.00000      BETA = 0.614553      Q =  0.00000    
      KODE = 3  NTRIAL =   2  T = 468.6254  P = 1.500000E+06  V =  0.00000      BETA = 0.593424      Q =  0.00000    
      KODE = 3  NTRIAL =   2  T = 468.6254  P = 1.500000E+06  V =  0.00000      BETA = 0.572296      Q =  0.00000    
      KODE = 3  NTRIAL =   2  T = 468.6254  P = 1.500000E+06  V =  0.00000      BETA = 0.551167      Q =  0.00000    
      KODE = 3  NTRIAL =   2  T = 468.6254  P = 1.500000E+06  V =  0.00000      BETA = 0.530038      Q =  0.00000    
      KODE = 3  NTRIAL =   2  T = 468.6254  P = 1.500000E+06  V =  0.00000      BETA = 0.508910      Q =  0.00000    
      KODE = 3  NTRIAL =   2  T = 468.6254  P = 1.500000E+06  V =  0.00000      BETA = 0.487781      Q =  0.00000    
      KODE = 3  NTRIAL =   2  T = 468.6254  P = 1.500000E+06  V =  0.00000      BETA = 0.466652      Q =  0.00000    
      KODE = 3  NTRIAL =   2  T = 468.6254  P = 1.500000E+06  V =  0.00000      BETA = 0.445524      Q =  0.00000    
      KODE = 3  NTRIAL =   2  T = 468.6254  P = 1.500000E+06  V =  0.00000      BETA = 0.424395      Q =  0.00000    
      KODE = 3  NTRIAL =   2  T = 468.6254  P = 1.500000E+06  V =  0.00000      BETA = 0.403266      Q =  0.00000    
      KODE = 3  NTRIAL =   2  T = 468.6254  P = 1.500000E+06  V =  0.00000      BETA = 0.382138      Q =  0.00000    
      KODE = 3  NTRIAL =   2  T = 468.6254  P = 1.500000E+06  V =  0.00000      BETA = 0.361009      Q =  0.00000    
      KODE = 3  NTRIAL =   2  T = 468.6254  P = 1.500000E+06  V =  0.00000      BETA = 0.339880      Q =  0.00000    
      KODE = 3  NTRIAL =   2  T = 468.6254  P = 1.500000E+06  V =  0.00000      BETA = 0.318752      Q =  0.00000    
      KODE = 3  NTRIAL =   2  T = 468.6254  P = 1.500000E+06  V =  0.00000      BETA = 0.297623      Q =  0.00000    
      KODE = 3  NTRIAL =   2  T = 468.6254  P = 1.500000E+06  V =  0.00000      BETA = 0.276494      Q =  0.00000    
      KODE = 3  NTRIAL =   2  T = 468.6254  P = 1.500000E+06  V =  0.00000      BETA = 0.255366      Q =  0.00000    
      KODE = 3  NTRIAL =   2  T = 468.6254  P = 1.500000E+06  V =  0.00000      BETA = 0.234237      Q =  0.00000    
      KODE = 3  NTRIAL =   2  T = 468.6254  P = 1.500000E+06  V =  0.00000      BETA = 0.213108      Q =  0.00000    
      KODE = 3  NTRIAL =   2  T = 468.6254  P = 1.500000E+06  V =  0.00000      BETA = 0.191980      Q =  0.00000    
      KODE = 3  NTRIAL =   2  T = 468.6254  P = 1.500000E+06  V =  0.00000      BETA = 0.170851      Q =  0.00000    
      KODE = 3  NTRIAL =   2  T = 468.6254  P = 1.500000E+06  V =  0.00000      BETA = 0.149722      Q =  0.00000    
      KODE = 3  NTRIAL =   2  T = 468.6254  P = 1.500000E+06  V =  0.00000      BETA = 0.128594      Q =  0.00000    
      KODE = 3  NTRIAL =   2  T = 468.6254  P = 1.500000E+06  V =  0.00000      BETA = 0.107465      Q =  0.00000    
      KODE = 3  NTRIAL =   2  T = 468.6254  P = 1.500000E+06  V =  0.00000      BETA = 8.633616E-02  Q =  0.00000    
      KODE = 3  NTRIAL =   2  T = 468.6254  P = 1.500000E+06  V =  0.00000      BETA = 6.520748E-02  Q =  0.00000    
      KODE = 3  NTRIAL =   2  T = 468.6254  P = 1.500000E+06  V =  0.00000      BETA = 4.407880E-02  Q =  0.00000    
      KODE = 3  NTRIAL =   2  T = 468.6254  P = 1.500000E+06  V =  0.00000      BETA = 2.295012E-02  Q =  0.00000    
      KODE = 3  NTRIAL =   2  T = 468.6254  P = 1.500000E+06  V =  0.00000      BETA = 1.821443E-03  Q =  0.00000    
      KODE = 3  NTRIAL =  17  T = 469.0753  P = 1.500000E+06  V =  0.00000      BETA =  1.00000      Q =  0.00000    
      KODE = 3  NTRIAL =   7  T = 469.9623  P = 1.500000E+06  V =  0.00000      BETA =  1.00000      Q =  0.00000    
      KODE = 3  NTRIAL =   4  T = 471.5536  P = 1.500000E+06  V =  0.00000      BETA =  1.00000      Q =  0.00000    

      BEGIN CALCULATIONS FOR PROP-TABLE BINRY-2                                   TIME =    495.20
      KODE = 3  NTRIAL =   5  T = 456.9010  P =  100000.      V =  0.00000      BETA =  1.00000      Q =  0.00000    
      KODE = 3  NTRIAL =   8  T = 433.8439  P =  100000.      V =  0.00000      BETA =  1.00000      Q =  0.00000    
      KODE = 3  NTRIAL =   9  T = 419.9221  P =  100000.      V =  0.00000      BETA =  1.00000      Q =  0.00000    
      KODE = 3  NTRIAL =   8  T = 410.4501  P =  100000.      V =  0.00000      BETA =  1.00000      Q =  0.00000    
      KODE = 3  NTRIAL =   7  T = 403.4827  P =  100000.      V =  0.00000      BETA =  1.00000      Q =  0.00000    
      KODE = 3  NTRIAL =   7  T = 398.0865  P =  100000.      V =  0.00000      BETA =  1.00000      Q =  0.00000    
      KODE = 3  NTRIAL =   7  T = 393.7553  P =  100000.      V =  0.00000      BETA =  1.00000      Q =  0.00000    
      KODE = 3  NTRIAL =   7  T = 390.1883  P =  100000.      V =  0.00000      BETA =  1.00000      Q =  0.00000    
      KODE = 3  NTRIAL =   7  T = 387.1941  P =  100000.      V =  0.00000      BETA =  1.00000      Q =  0.00000    
      KODE = 3  NTRIAL =   7  T = 384.6441  P =  100000.      V =  0.00000      BETA =  1.00000      Q =  0.00000    
      KODE = 3  NTRIAL =   7  T = 382.4482  P =  100000.      V =  0.00000      BETA =  1.00000      Q =  0.00000    
      KODE = 3  NTRIAL =   7  T = 380.5412  P =  100000.      V =  0.00000      BETA =  1.00000      Q =  0.00000    
      KODE = 3  NTRIAL =   7  T = 378.8744  P =  100000.      V =  0.00000      BETA =  1.00000      Q =  0.00000    
      KODE = 3  NTRIAL =   6  T = 377.4107  P =  100000.      V =  0.00000      BETA =  1.00000      Q =  0.00000    
      KODE = 3  NTRIAL =   6  T = 376.1213  P =  100000.      V =  0.00000      BETA =  1.00000      Q =  0.00000    
      KODE = 3  NTRIAL =   6  T = 374.9832  P =  100000.      V =  0.00000      BETA =  1.00000      Q =  0.00000    
      KODE = 3  NTRIAL =   6  T = 373.9780  P =  100000.      V =  0.00000      BETA =  1.00000      Q =  0.00000    
      KODE = 3  NTRIAL =   6  T = 373.0909  P =  100000.      V =  0.00000      BETA =  1.00000      Q =  0.00000    
      KODE = 3  NTRIAL =   6  T = 372.3093  P =  100000.      V =  0.00000      BETA =  1.00000      Q =  0.00000    
      KODE = 3  NTRIAL =   9  T = 371.8387  P =  100000.      V =  0.00000      BETA = 0.989302      Q =  0.00000    
      KODE = 3  NTRIAL =   2  T = 371.8387  P =  100000.      V =  0.00000      BETA = 0.956736      Q =  0.00000    
      KODE = 3  NTRIAL =   2  T = 371.8387  P =  100000.      V =  0.00000      BETA = 0.924170      Q =  0.00000    
      KODE = 3  NTRIAL =   2  T = 371.8387  P =  100000.      V =  0.00000      BETA = 0.891605      Q =  0.00000    
      KODE = 3  NTRIAL =   2  T = 371.8387  P =  100000.      V =  0.00000      BETA = 0.859039      Q =  0.00000    
      KODE = 3  NTRIAL =   2  T = 371.8387  P =  100000.      V =  0.00000      BETA = 0.826473      Q =  0.00000    
      KODE = 3  NTRIAL =   2  T = 371.8387  P =  100000.      V =  0.00000      BETA = 0.793908      Q =  0.00000    
      KODE = 3  NTRIAL =   2  T = 371.8387  P =  100000.      V =  0.00000      BETA = 0.761342      Q =  0.00000    
      KODE = 3  NTRIAL =   2  T = 371.8387  P =  100000.      V =  0.00000      BETA = 0.728776      Q =  0.00000    
      KODE = 3  NTRIAL =   2  T = 371.8387  P =  100000.      V =  0.00000      BETA = 0.696211      Q =  0.00000    
      KODE = 3  NTRIAL =   2  T = 371.8387  P =  100000.      V =  0.00000      BETA = 0.663645      Q =  0.00000    
      KODE = 3  NTRIAL =   2  T = 371.8387  P =  100000.      V =  0.00000      BETA = 0.631080      Q =  0.00000    
      KODE = 3  NTRIAL =   2  T = 371.8387  P =  100000.      V =  0.00000      BETA = 0.598514      Q =  0.00000    
      KODE = 3  NTRIAL =   2  T = 371.8387  P =  100000.      V =  0.00000      BETA = 0.565948      Q =  0.00000    
      KODE = 3  NTRIAL =   2  T = 371.8387  P =  100000.      V =  0.00000      BETA = 0.533383      Q =  0.00000    
      KODE = 3  NTRIAL =   2  T = 371.8387  P =  100000.      V =  0.00000      BETA = 0.500817      Q =  0.00000    
      KODE = 3  NTRIAL =   2  T = 371.8387  P =  100000.      V =  0.00000      BETA = 0.468251      Q =  0.00000    
      KODE = 3  NTRIAL =   2  T = 371.8387  P =  100000.      V =  0.00000      BETA = 0.435686      Q =  0.00000    
      KODE = 3  NTRIAL =   2  T = 371.8387  P =  100000.      V =  0.00000      BETA = 0.403120      Q =  0.00000    
      KODE = 3  NTRIAL =   2  T = 371.8387  P =  100000.      V =  0.00000      BETA = 0.370555      Q =  0.00000    
      KODE = 3  NTRIAL =   2  T = 371.8387  P =  100000.      V =  0.00000      BETA = 0.337989      Q =  0.00000    
      KODE = 3  NTRIAL =   2  T = 371.8387  P =  100000.      V =  0.00000      BETA = 0.305423      Q =  0.00000    
      KODE = 3  NTRIAL =   2  T = 371.8387  P =  100000.      V =  0.00000      BETA = 0.272858      Q =  0.00000    
      KODE = 3  NTRIAL =   2  T = 371.8387  P =  100000.      V =  0.00000      BETA = 0.240292      Q =  0.00000    
      KODE = 3  NTRIAL =   2  T = 371.8387  P =  100000.      V =  0.00000      BETA = 0.207726      Q =  0.00000    
      KODE = 3  NTRIAL =   2  T = 371.8387  P =  100000.      V =  0.00000      BETA = 0.175161      Q =  0.00000    
      KODE = 3  NTRIAL =   2  T = 371.8387  P =  100000.      V =  0.00000      BETA = 0.142595      Q =  0.00000    
      KODE = 3  NTRIAL =   2  T = 371.8387  P =  100000.      V =  0.00000      BETA = 0.110030      Q =  0.00000    
      KODE = 3  NTRIAL =   2  T = 371.8387  P =  100000.      V =  0.00000      BETA = 7.746390E-02  Q =  0.00000    
      KODE = 3  NTRIAL =   2  T = 371.8387  P =  100000.      V =  0.00000      BETA = 4.489827E-02  Q =  0.00000    
      KODE = 3  NTRIAL =   2  T = 371.8387  P =  100000.      V =  0.00000      BETA = 1.233264E-02  Q =  0.00000    
      KODE = 3  NTRIAL =   2  T = 372.7276  P =  100000.      V =  0.00000      BETA =  1.00000      Q =  0.00000    

 Results generated                                                                Time =    495.24

RUN SAVED



 *** SUMMARY OF ERRORS ***

                  PHYSICAL
                  PROPERTY  SYSTEM  SIMULATION
 TERMINAL ERRORS      0        0         0
   SEVERE ERRORS      0        0         0
          ERRORS      0        0         3
        WARNINGS      0        0        12
