
 + + + + + + + + + + + + + + + + + + + + + + + + + + + + + + + + + + + + + + + +
 + + + + + + + + + + + + + + + + + + + + + + + + + + + + + + + + + + + + + + + +
 + +                                                                         + +
 + +                      ASPEN PLUS CALCULATION HISTORY                     + +
 + +                                                                         + +
 + + + + + + + + + + + + + + + + + + + + + + + + + + + + + + + + + + + + + + + +
 + + + + + + + + + + + + + + + + + + + + + + + + + + + + + + + + + + + + + + + +

 ASPEN PLUS IS A TRADEMARK OF           HOTLINE:
 ASPEN TECHNOLOGY, INC.                 U.S.A. 888/996-7100
 781/221-6400                           EUROPE (44) 1189-226555

 PLATFORM: WIN-X64                                       MARCH 25, 2026      
 VERSION: 41.0   Build 609                               WEDNESDAY   
 INSTALLATION:                                           5:50:58 P.M.        

 THIS COPY OF ASPEN PLUS LICENSED TO UNIVERSITY OF BRITISH CO        


      ASPEN PLUS (R) IS A PROPRIETARY PRODUCT OF ASPEN TECHNOLOGY, INC.
      (ASPENTECH), AND MAY BE USED ONLY UNDER AGREEMENT WITH ASPENTECH.
      RESTRICTED RIGHTS LEGEND:  USE, REPRODUCTION, OR DISCLOSURE BY THE
      U.S. GOVERNMENT IS SUBJECT TO RESTRICTIONS SET FORTH IN 
      (i) FAR 52.227-14, Alt. III, (ii) FAR 52.227-19, (iii) DFARS 
      252.227-7013(c)(1)(ii), or (iv) THE ACCOMPANYING LICENSE AGREEMENT,
      AS APPLICABLE. FOR PURPOSES OF THE FAR, THIS SOFTWARE SHALL BE DEEMED
      TO BE "UNPUBLISHED" AND LICENSED WITH DISCLOSURE PROHIBITIONS.
      CONTRACTOR/SUBCONTRACTOR: ASPEN TECHNOLOGY, INC. 20 CROSBY DRIVE,
      BEDFORD, MA 01730.
 *** INPUT SUMMARY ***

 >>CURRENT RUN

   ORIGINAL RUN                           MARCH 25, 2026      
   5:50:58 P.M.                           WEDNESDAY   
   INPUT FILE: _0316asl.inm
   RUN ID : _0316asl
          1    ;
          2    ;Input file created by Aspen Plus Rel. 41.0 at 17:50:57 Wed Mar 25, 2026
          3    ;Directory Z:\Documents\Education\UBC\CHBE 376\Term Project\Term Project  Runid TERM PROJECT
          4    ;
          5
          6
          7    DYNAMICS
          8        DYNAMICS RESULTS=ON
          9
         10    IN-UNITS MET PRESSURE=bar TEMPERATURE=C DELTA-T=C PDROP=bar  &
         11            INVERSE-PRES='1/bar' SHORT-LENGTH=mm
         12
         13    DEF-STREAMS CONVEN ALL
         14
         15    MODEL-OPTION
         16
         17    DATABANKS 'APV150 PURE41' / 'APV150 AQUEOUS' / 'APV150 SOLIDS' &
         18             / 'APV150 INORGANIC' / 'APESV150 AP-EOS' /  &
         19            'NISTV150 NIST-TRC' / NOASPENPCD
         20
         21    PROP-SOURCES 'APV150 PURE41' / 'APV150 AQUEOUS' /  &
         22            'APV150 SOLIDS' / 'APV150 INORGANIC' / 'APESV150 AP-EOS' &
         23             / 'NISTV150 NIST-TRC'
         24
         25    COMPONENTS
         26        HYDROGEN H2 /
         27        NITROBEN C6H5NO2 /
         28        ANILINE C6H7N-1 /
         29        WATER H2O
         30
         31    SOLVE
         32        RUN-MODE MODE=SIM
         33
         34    FLOWSHEET
         35        BLOCK R101 IN=FEED OUT=PROD
         36        BLOCK S101 IN=PROD OUT=HYDROGEN LIQUID
         37
         38    PROPERTIES PSRK
         39
         40    STREAM FEED
         41        SUBSTREAM MIXED TEMP=350. PRES=1.5 <MPa>
         42        MOLE-FLOW HYDROGEN 6875000. <kmol/oper-year> / NITROBEN  &
         43            1356437.5 <kmol/oper-year> / ANILINE 0. <kmol/oper-year> /  &
         44            WATER 18562.5 <kmol/oper-year>
         45
         46    BLOCK S101 FLASH2
         47        PARAM TEMP=195. PRES=1.5 <MPa> NPHASE=3
         48        BLOCK-OPTION FREE-WATER=NO
         49
         50    BLOCK R101 RPLUG
         51        PARAM TYPE=T-SPEC NTUBE=50 LENGTH=4.5 DIAM=0.0978  &
         52            IGN-CAT-VOL=NO CAT-PRESENT=YES BED-VOIDAGE=0.6  &
         53            CAT-RHO=1422. <kg/cum>
         54        T-SPEC 0.0 350.
         55        REACTIONS RXN-IDS=R-1
         56
         57    EO-CONV-OPTI
         58
         59    SENSITIVITY RSIZE-1
         60        DEFINE BENIN MOLE-FLOW STREAM=FEED SUBSTREAM=MIXED  &
         61            COMPONENT=NITROBEN UOM="kmol/hr"
         62        DEFINE BENOUT MOLE-FLOW STREAM=PROD SUBSTREAM=MIXED  &
         63            COMPONENT=NITROBEN UOM="kmol/hr"
         64        DEFINE ANIPROD MASS-FLOW STREAM=PROD SUBSTREAM=MIXED  &
         65            COMPONENT=ANILINE UOM="tonne/oper-year"
         66        TABULATE 1 "ANIPROD"
         67        TABULATE 2 "(benin-benout)/benin"
         68        VARY BLOCK-VAR BLOCK=R101 VARIABLE=LENGTH SENTENCE=PARAM  &
         69            UOM="meter"
         70        RANGE OPT-LIST=RANGE LOWER="2" UPPER="12" INCR="0.5"
         71        VARY BLOCK-VAR BLOCK=R101 VARIABLE=NTUBE SENTENCE=PARAM
         72        RANGE OPT-LIST=RANGE LOWER="20" UPPER="204" INCR="2"
         73
         74    STREAM-REPOR MOLEFLOW
         75
         76    REACTIONS R-1 POWERLAW
         77        REAC-DATA 1 PHASE=V CBASIS=PARTIALPRES RBASIS=CAT-WT
         78        RATE-CON 1 PRE-EXP=0.0001125 ACT-ENERGY=68507.36 <kJ/kmol>
         79        STOIC 1 MIXED NITROBEN -1. / HYDROGEN -3. / ANILINE 1. / &
         80            WATER 2.
         81        POWLAW-EXP 1 MIXED NITROBEN 0.5 / MIXED HYDROGEN 0.5
         82
         83    PROP-TABLE BINRY-1 FLASHCURVE
         84        IN-UNITS MET PRESSURE=MPa TEMPERATURE=C DELTA-T=C PDROP=bar  &
         85            INVERSE-PRES='1/bar' SHORT-LENGTH=mm
         86        PROPERTIES PSRK FREE-WATER=STEAM-TA SOLU-WATER=3  &
         87            TRUE-COMPS=YES
         88        BLOCK-OPTION FREE-WATER=NO
         89        MOLE-FLOW ANILINE 1 /  WATER  1
         90        STATE VFRAC=0.0
         91        ANALYSIS ANAL-TYPE=TXY
         92        VARY PRES
         93        RANGE LIST=1.5
         94        VARY MOLEFRAC COMP=WATER
         95        RANGE VARVALUE=RANGE LOWER=0.0 UPPER=1.0 NPOINT=100
         96        PARAM NPHASE=3 MAXIT=100
         97
         98    DISABLE
         99        STREAM HYDROGEN LIQUID
        100        SENSITIVITY RSIZE-1
        101    ;
        102    ;
        103    ;
        104    ;
        105    ;
 *** INPUT TRANSLATOR MESSAGES ***

      SQLLOCALDB.APESV150 : (DATAVERSION - 41.0.0.10)                         
      SQLLOCALDB.APV150 : (DATAVERSION - 41.0.0.9)                            
      SQLLOCALDB.FACTV150 : (DATAVERSION - 41.0.0.6)                          
      SQLLOCALDB.NISTV150 : (DATAVERSION - 41.0.0.7)                          
  *** THIS RUN USES THE PROPERTIES ENTERPRISE DATABASE ***


 
 SENSITIVITY BLOCK: RSIZE-1 WILL BE INTERPRETED 
 

 PDF updated                                                                      TIME =      1.40

 *** CALCULATION TRACE ***


 *** FLOWSHEET ANALYSIS MESSAGES ***

 FLOWSHEET CONNECTIVITY BY STREAMS       

   STREAM     SOURCE     DEST           STREAM     SOURCE     DEST
   FEED       ----       R101           PROD       R101       S101    
   HYDROGEN   S101       ----           LIQUID     S101       ----    

 FLOWSHEET CONNECTIVITY BY BLOCKS        

   BLOCK        INLETS                         OUTLETS
   R101         FEED                           PROD                        
   S101         PROD                           HYDROGEN LIQUID             

      COMPUTATION ORDER FOR THE FLOWSHEET IS:
      R101 S101 

Calculations begin                                                              time      0.06


 SIMULATION CALCULATIONS BEGIN                                                    TIME =      0.06

      ENTHALPY CALCULATION FOR INLET STREAM FEED OF BLOCK R101                    TIME =      0.06
      KODE = 2  NTRIAL =   5  T = 623.1500  P = 1.500000E+06  V =  1.00000      Q =  0.00000    

      UOS BLOCK R101     MODEL: RPLUG                                             TIME =      0.06
        AT REACTOR EXIT :
        LENGTH =   4.5000      DIAMETER =  0.97800E-01  RESIDENCE TIME =   1.2861    
        PROCESS STREAM T =    623.15     P =   0.15000E+07 H =  -0.13219E+08 V =    1.0000    

      UOS BLOCK S101     MODEL: FLASH2                                            TIME =      0.06
      KODE = 2  NTRIAL =  11  T = 468.1500  P = 1.500000E+06  V = 0.859361      BETA =  1.00000      Q =-3.401287E+06

 Report Writer entered                                                            Time =      0.10

      BEGIN CALCULATIONS FOR PROP-TABLE BINRY-1                                   TIME =      0.17
      KODE = 3  NTRIAL =   8  T = 596.3156  P = 1.500000E+06  V =  0.00000      BETA =  1.00000      Q =  0.00000    
      KODE = 3  NTRIAL =  11  T = 584.8493  P = 1.500000E+06  V =  0.00000      BETA =  1.00000      Q =  0.00000    
      KODE = 3  NTRIAL =  11  T = 574.2191  P = 1.500000E+06  V =  0.00000      BETA =  1.00000      Q =  0.00000    
      KODE = 3  NTRIAL =  11  T = 564.5782  P = 1.500000E+06  V =  0.00000      BETA =  1.00000      Q =  0.00000    
      KODE = 3  NTRIAL =  11  T = 555.9453  P = 1.500000E+06  V =  0.00000      BETA =  1.00000      Q =  0.00000    
      KODE = 3  NTRIAL =  11  T = 548.2589  P = 1.500000E+06  V =  0.00000      BETA =  1.00000      Q =  0.00000    
      KODE = 3  NTRIAL =  11  T = 541.4223  P = 1.500000E+06  V =  0.00000      BETA =  1.00000      Q =  0.00000    
      KODE = 3  NTRIAL =  11  T = 535.3309  P = 1.500000E+06  V =  0.00000      BETA =  1.00000      Q =  0.00000    
      KODE = 3  NTRIAL =  11  T = 529.8854  P = 1.500000E+06  V =  0.00000      BETA =  1.00000      Q =  0.00000    
      KODE = 3  NTRIAL =  11  T = 524.9978  P = 1.500000E+06  V =  0.00000      BETA =  1.00000      Q =  0.00000    
      KODE = 3  NTRIAL =  11  T = 520.5922  P = 1.500000E+06  V =  0.00000      BETA =  1.00000      Q =  0.00000    
      KODE = 3  NTRIAL =  11  T = 516.6040  P = 1.500000E+06  V =  0.00000      BETA =  1.00000      Q =  0.00000    
      KODE = 3  NTRIAL =  11  T = 512.9791  P = 1.500000E+06  V =  0.00000      BETA =  1.00000      Q =  0.00000    
      KODE = 3  NTRIAL =  10  T = 509.6717  P = 1.500000E+06  V =  0.00000      BETA =  1.00000      Q =  0.00000    
      KODE = 3  NTRIAL =  10  T = 506.6433  P = 1.500000E+06  V =  0.00000      BETA =  1.00000      Q =  0.00000    
      KODE = 3  NTRIAL =  10  T = 503.8613  P = 1.500000E+06  V =  0.00000      BETA =  1.00000      Q =  0.00000    
      KODE = 3  NTRIAL =   9  T = 501.2981  P = 1.500000E+06  V =  0.00000      BETA =  1.00000      Q =  0.00000    
      KODE = 3  NTRIAL =   9  T = 498.9301  P = 1.500000E+06  V =  0.00000      BETA =  1.00000      Q =  0.00000    
      KODE = 3  NTRIAL =   9  T = 496.7370  P = 1.500000E+06  V =  0.00000      BETA =  1.00000      Q =  0.00000    
      KODE = 3  NTRIAL =   9  T = 494.7014  P = 1.500000E+06  V =  0.00000      BETA =  1.00000      Q =  0.00000    
      KODE = 3  NTRIAL =   9  T = 492.8082  P = 1.500000E+06  V =  0.00000      BETA =  1.00000      Q =  0.00000    
      KODE = 3  NTRIAL =   9  T = 491.0443  P = 1.500000E+06  V =  0.00000      BETA =  1.00000      Q =  0.00000    
      KODE = 3  NTRIAL =   9  T = 489.3981  P = 1.500000E+06  V =  0.00000      BETA =  1.00000      Q =  0.00000    
      KODE = 3  NTRIAL =   9  T = 487.8596  P = 1.500000E+06  V =  0.00000      BETA =  1.00000      Q =  0.00000    
      KODE = 3  NTRIAL =   9  T = 486.4199  P = 1.500000E+06  V =  0.00000      BETA =  1.00000      Q =  0.00000    
      KODE = 3  NTRIAL =   9  T = 485.0711  P = 1.500000E+06  V =  0.00000      BETA =  1.00000      Q =  0.00000    
      KODE = 3  NTRIAL =   9  T = 483.8062  P = 1.500000E+06  V =  0.00000      BETA =  1.00000      Q =  0.00000    
      KODE = 3  NTRIAL =   9  T = 482.6190  P = 1.500000E+06  V =  0.00000      BETA =  1.00000      Q =  0.00000    
      KODE = 3  NTRIAL =   9  T = 481.5039  P = 1.500000E+06  V =  0.00000      BETA =  1.00000      Q =  0.00000    
      KODE = 3  NTRIAL =   9  T = 480.4558  P = 1.500000E+06  V =  0.00000      BETA =  1.00000      Q =  0.00000    
      KODE = 3  NTRIAL =   9  T = 479.4703  P = 1.500000E+06  V =  0.00000      BETA =  1.00000      Q =  0.00000    
      KODE = 3  NTRIAL =   9  T = 478.5433  P = 1.500000E+06  V =  0.00000      BETA =  1.00000      Q =  0.00000    
      KODE = 3  NTRIAL =   9  T = 477.6710  P = 1.500000E+06  V =  0.00000      BETA =  1.00000      Q =  0.00000    
      KODE = 3  NTRIAL =   9  T = 476.8501  P = 1.500000E+06  V =  0.00000      BETA =  1.00000      Q =  0.00000    
      KODE = 3  NTRIAL =   9  T = 476.0776  P = 1.500000E+06  V =  0.00000      BETA =  1.00000      Q =  0.00000    
      KODE = 3  NTRIAL =   9  T = 475.3506  P = 1.500000E+06  V =  0.00000      BETA =  1.00000      Q =  0.00000    
      KODE = 3  NTRIAL =   9  T = 474.6666  P = 1.500000E+06  V =  0.00000      BETA =  1.00000      Q =  0.00000    
      KODE = 3  NTRIAL =  28  T = 474.0232  P = 1.500000E+06  V =  0.00000      BETA =  1.00000      Q =  0.00000    
      KODE = 3  NTRIAL =  28  T = 473.4183  P = 1.500000E+06  V =  0.00000      BETA =  1.00000      Q =  0.00000    
      KODE = 3  NTRIAL =  12  T = 472.8499  P = 1.500000E+06  V =  0.00000      BETA =  1.00000      Q =  0.00000    
      KODE = 3  NTRIAL =  11  T = 472.3161  P = 1.500000E+06  V =  0.00000      BETA =  1.00000      Q =  0.00000    
      KODE = 3  NTRIAL =  11  T = 471.8153  P = 1.500000E+06  V =  0.00000      BETA =  1.00000      Q =  0.00000    
      KODE = 3  NTRIAL =  11  T = 471.3459  P = 1.500000E+06  V =  0.00000      BETA =  1.00000      Q =  0.00000    
      KODE = 3  NTRIAL =  11  T = 470.9063  P = 1.500000E+06  V =  0.00000      BETA =  1.00000      Q =  0.00000    
      KODE = 3  NTRIAL =  11  T = 470.4954  P = 1.500000E+06  V =  0.00000      BETA =  1.00000      Q =  0.00000    
      KODE = 3  NTRIAL =  11  T = 470.1117  P = 1.500000E+06  V =  0.00000      BETA =  1.00000      Q =  0.00000    
      KODE = 3  NTRIAL =  11  T = 469.7540  P = 1.500000E+06  V =  0.00000      BETA =  1.00000      Q =  0.00000    
      KODE = 3  NTRIAL =  11  T = 469.4214  P = 1.500000E+06  V =  0.00000      BETA =  1.00000      Q =  0.00000    
      KODE = 3  NTRIAL =  12  T = 469.1127  P = 1.500000E+06  V =  0.00000      BETA =  1.00000      Q =  0.00000    
      KODE = 3  NTRIAL =  13  T = 468.8270  P = 1.500000E+06  V =  0.00000      BETA =  1.00000      Q =  0.00000    
      KODE = 3  NTRIAL =  15  T = 468.6254  P = 1.500000E+06  V =  0.00000      BETA = 0.994869      Q =  0.00000    
      KODE = 3  NTRIAL =   2  T = 468.6254  P = 1.500000E+06  V =  0.00000      BETA = 0.973741      Q =  0.00000    
      KODE = 3  NTRIAL =   2  T = 468.6254  P = 1.500000E+06  V =  0.00000      BETA = 0.952612      Q =  0.00000    
      KODE = 3  NTRIAL =   2  T = 468.6254  P = 1.500000E+06  V =  0.00000      BETA = 0.931483      Q =  0.00000    
      KODE = 3  NTRIAL =   2  T = 468.6254  P = 1.500000E+06  V =  0.00000      BETA = 0.910355      Q =  0.00000    
      KODE = 3  NTRIAL =   2  T = 468.6254  P = 1.500000E+06  V =  0.00000      BETA = 0.889226      Q =  0.00000    
      KODE = 3  NTRIAL =   2  T = 468.6254  P = 1.500000E+06  V =  0.00000      BETA = 0.868097      Q =  0.00000    
      KODE = 3  NTRIAL =   2  T = 468.6254  P = 1.500000E+06  V =  0.00000      BETA = 0.846969      Q =  0.00000    
      KODE = 3  NTRIAL =   2  T = 468.6254  P = 1.500000E+06  V =  0.00000      BETA = 0.825840      Q =  0.00000    
      KODE = 3  NTRIAL =   2  T = 468.6254  P = 1.500000E+06  V =  0.00000      BETA = 0.804711      Q =  0.00000    
      KODE = 3  NTRIAL =   2  T = 468.6254  P = 1.500000E+06  V =  0.00000      BETA = 0.783583      Q =  0.00000    
      KODE = 3  NTRIAL =   2  T = 468.6254  P = 1.500000E+06  V =  0.00000      BETA = 0.762454      Q =  0.00000    
      KODE = 3  NTRIAL =   2  T = 468.6254  P = 1.500000E+06  V =  0.00000      BETA = 0.741325      Q =  0.00000    
      KODE = 3  NTRIAL =   2  T = 468.6254  P = 1.500000E+06  V =  0.00000      BETA = 0.720197      Q =  0.00000    
      KODE = 3  NTRIAL =   2  T = 468.6254  P = 1.500000E+06  V =  0.00000      BETA = 0.699068      Q =  0.00000    
      KODE = 3  NTRIAL =   2  T = 468.6254  P = 1.500000E+06  V =  0.00000      BETA = 0.677939      Q =  0.00000    
      KODE = 3  NTRIAL =   2  T = 468.6254  P = 1.500000E+06  V =  0.00000      BETA = 0.656811      Q =  0.00000    
      KODE = 3  NTRIAL =   2  T = 468.6254  P = 1.500000E+06  V =  0.00000      BETA = 0.635682      Q =  0.00000    
      KODE = 3  NTRIAL =   2  T = 468.6254  P = 1.500000E+06  V =  0.00000      BETA = 0.614553      Q =  0.00000    
      KODE = 3  NTRIAL =   2  T = 468.6254  P = 1.500000E+06  V =  0.00000      BETA = 0.593424      Q =  0.00000    
      KODE = 3  NTRIAL =   2  T = 468.6254  P = 1.500000E+06  V =  0.00000      BETA = 0.572296      Q =  0.00000    
      KODE = 3  NTRIAL =   2  T = 468.6254  P = 1.500000E+06  V =  0.00000      BETA = 0.551167      Q =  0.00000    
      KODE = 3  NTRIAL =   2  T = 468.6254  P = 1.500000E+06  V =  0.00000      BETA = 0.530038      Q =  0.00000    
      KODE = 3  NTRIAL =   2  T = 468.6254  P = 1.500000E+06  V =  0.00000      BETA = 0.508910      Q =  0.00000    
      KODE = 3  NTRIAL =   2  T = 468.6254  P = 1.500000E+06  V =  0.00000      BETA = 0.487781      Q =  0.00000    
      KODE = 3  NTRIAL =   2  T = 468.6254  P = 1.500000E+06  V =  0.00000      BETA = 0.466652      Q =  0.00000    
      KODE = 3  NTRIAL =   2  T = 468.6254  P = 1.500000E+06  V =  0.00000      BETA = 0.445524      Q =  0.00000    
      KODE = 3  NTRIAL =   2  T = 468.6254  P = 1.500000E+06  V =  0.00000      BETA = 0.424395      Q =  0.00000    
      KODE = 3  NTRIAL =   2  T = 468.6254  P = 1.500000E+06  V =  0.00000      BETA = 0.403266      Q =  0.00000    
      KODE = 3  NTRIAL =   2  T = 468.6254  P = 1.500000E+06  V =  0.00000      BETA = 0.382138      Q =  0.00000    
      KODE = 3  NTRIAL =   2  T = 468.6254  P = 1.500000E+06  V =  0.00000      BETA = 0.361009      Q =  0.00000    
      KODE = 3  NTRIAL =   2  T = 468.6254  P = 1.500000E+06  V =  0.00000      BETA = 0.339880      Q =  0.00000    
      KODE = 3  NTRIAL =   2  T = 468.6254  P = 1.500000E+06  V =  0.00000      BETA = 0.318752      Q =  0.00000    
      KODE = 3  NTRIAL =   2  T = 468.6254  P = 1.500000E+06  V =  0.00000      BETA = 0.297623      Q =  0.00000    
      KODE = 3  NTRIAL =   2  T = 468.6254  P = 1.500000E+06  V =  0.00000      BETA = 0.276494      Q =  0.00000    
      KODE = 3  NTRIAL =   2  T = 468.6254  P = 1.500000E+06  V =  0.00000      BETA = 0.255366      Q =  0.00000    
      KODE = 3  NTRIAL =   2  T = 468.6254  P = 1.500000E+06  V =  0.00000      BETA = 0.234237      Q =  0.00000    
      KODE = 3  NTRIAL =   2  T = 468.6254  P = 1.500000E+06  V =  0.00000      BETA = 0.213108      Q =  0.00000    
      KODE = 3  NTRIAL =   2  T = 468.6254  P = 1.500000E+06  V =  0.00000      BETA = 0.191980      Q =  0.00000    
      KODE = 3  NTRIAL =   2  T = 468.6254  P = 1.500000E+06  V =  0.00000      BETA = 0.170851      Q =  0.00000    
      KODE = 3  NTRIAL =   2  T = 468.6254  P = 1.500000E+06  V =  0.00000      BETA = 0.149722      Q =  0.00000    
      KODE = 3  NTRIAL =   2  T = 468.6254  P = 1.500000E+06  V =  0.00000      BETA = 0.128594      Q =  0.00000    
      KODE = 3  NTRIAL =   2  T = 468.6254  P = 1.500000E+06  V =  0.00000      BETA = 0.107465      Q =  0.00000    
      KODE = 3  NTRIAL =   2  T = 468.6254  P = 1.500000E+06  V =  0.00000      BETA = 8.633616E-02  Q =  0.00000    
      KODE = 3  NTRIAL =   2  T = 468.6254  P = 1.500000E+06  V =  0.00000      BETA = 6.520748E-02  Q =  0.00000    
      KODE = 3  NTRIAL =   2  T = 468.6254  P = 1.500000E+06  V =  0.00000      BETA = 4.407880E-02  Q =  0.00000    
      KODE = 3  NTRIAL =   2  T = 468.6254  P = 1.500000E+06  V =  0.00000      BETA = 2.295012E-02  Q =  0.00000    
      KODE = 3  NTRIAL =   2  T = 468.6254  P = 1.500000E+06  V =  0.00000      BETA = 1.821443E-03  Q =  0.00000    
      KODE = 3  NTRIAL =  17  T = 469.0753  P = 1.500000E+06  V =  0.00000      BETA =  1.00000      Q =  0.00000    
      KODE = 3  NTRIAL =   7  T = 469.9623  P = 1.500000E+06  V =  0.00000      BETA =  1.00000      Q =  0.00000    
      KODE = 3  NTRIAL =   4  T = 471.5536  P = 1.500000E+06  V =  0.00000      BETA =  1.00000      Q =  0.00000    

 Results generated                                                                Time =      0.25


*** INPUT SPECIFICATION MESSAGES ***

 CHANGES WERE MADE TO BLOCK        S101     03/25/2026   17:52:20:99 
 BLOCK S101 FLASH2
     PARAM TEMP=25. PRES=0. <atm> NPHASE=3
     BLOCK-OPTION FREE-WATER=NO

 DISABLE      IS  NEW 03/25/2026   17:52:20:99 
 DISABLE
     SENSITIVITY RSIZE-1

 PDF updated                                                                      TIME =     80.59
 THIS COPY OF ASPEN PLUS LICENSED TO UNIVERSITY OF BRITISH CO        


 
 SENSITIVITY BLOCK: RSIZE-1 WILL BE INTERPRETED 
 
 *** FLOWSHEET ANALYSIS MESSAGES ***

 FLOWSHEET CONNECTIVITY BY STREAMS       

   STREAM     SOURCE     DEST           STREAM     SOURCE     DEST
   FEED       ----       R101           PROD       R101       S101    
   HYDROGEN   S101       ----           LIQUID     S101       ----    

 FLOWSHEET CONNECTIVITY BY BLOCKS        

   BLOCK        INLETS                         OUTLETS
   R101         FEED                           PROD                        
   S101         PROD                           HYDROGEN LIQUID             

      COMPUTATION ORDER FOR THE FLOWSHEET IS:
      R101 S101 


Calculations begin                                                              time     80.72


      UOS BLOCK S101     MODEL: FLASH2                                            TIME =     80.72
      KODE = 2  NTRIAL =  10  T = 298.1500  P = 1.500000E+06  V = 0.406302      BETA = 0.521906      Q =-1.010984E+07

 Report Writer entered                                                            Time =     80.75

      BEGIN CALCULATIONS FOR PROP-TABLE BINRY-1                                   TIME =     80.90
      KODE = 3  NTRIAL =   8  T = 596.3156  P = 1.500000E+06  V =  0.00000      BETA =  1.00000      Q =  0.00000    
      KODE = 3  NTRIAL =  11  T = 584.8493  P = 1.500000E+06  V =  0.00000      BETA =  1.00000      Q =  0.00000    
      KODE = 3  NTRIAL =  11  T = 574.2191  P = 1.500000E+06  V =  0.00000      BETA =  1.00000      Q =  0.00000    
      KODE = 3  NTRIAL =  11  T = 564.5782  P = 1.500000E+06  V =  0.00000      BETA =  1.00000      Q =  0.00000    
      KODE = 3  NTRIAL =  11  T = 555.9453  P = 1.500000E+06  V =  0.00000      BETA =  1.00000      Q =  0.00000    
      KODE = 3  NTRIAL =  11  T = 548.2589  P = 1.500000E+06  V =  0.00000      BETA =  1.00000      Q =  0.00000    
      KODE = 3  NTRIAL =  11  T = 541.4223  P = 1.500000E+06  V =  0.00000      BETA =  1.00000      Q =  0.00000    
      KODE = 3  NTRIAL =  11  T = 535.3309  P = 1.500000E+06  V =  0.00000      BETA =  1.00000      Q =  0.00000    
      KODE = 3  NTRIAL =  11  T = 529.8854  P = 1.500000E+06  V =  0.00000      BETA =  1.00000      Q =  0.00000    
      KODE = 3  NTRIAL =  11  T = 524.9978  P = 1.500000E+06  V =  0.00000      BETA =  1.00000      Q =  0.00000    
      KODE = 3  NTRIAL =  11  T = 520.5922  P = 1.500000E+06  V =  0.00000      BETA =  1.00000      Q =  0.00000    
      KODE = 3  NTRIAL =  11  T = 516.6040  P = 1.500000E+06  V =  0.00000      BETA =  1.00000      Q =  0.00000    
      KODE = 3  NTRIAL =  11  T = 512.9791  P = 1.500000E+06  V =  0.00000      BETA =  1.00000      Q =  0.00000    
      KODE = 3  NTRIAL =  10  T = 509.6717  P = 1.500000E+06  V =  0.00000      BETA =  1.00000      Q =  0.00000    
      KODE = 3  NTRIAL =  10  T = 506.6433  P = 1.500000E+06  V =  0.00000      BETA =  1.00000      Q =  0.00000    
      KODE = 3  NTRIAL =  10  T = 503.8613  P = 1.500000E+06  V =  0.00000      BETA =  1.00000      Q =  0.00000    
      KODE = 3  NTRIAL =   9  T = 501.2981  P = 1.500000E+06  V =  0.00000      BETA =  1.00000      Q =  0.00000    
      KODE = 3  NTRIAL =   9  T = 498.9301  P = 1.500000E+06  V =  0.00000      BETA =  1.00000      Q =  0.00000    
      KODE = 3  NTRIAL =   9  T = 496.7370  P = 1.500000E+06  V =  0.00000      BETA =  1.00000      Q =  0.00000    
      KODE = 3  NTRIAL =   9  T = 494.7014  P = 1.500000E+06  V =  0.00000      BETA =  1.00000      Q =  0.00000    
      KODE = 3  NTRIAL =   9  T = 492.8082  P = 1.500000E+06  V =  0.00000      BETA =  1.00000      Q =  0.00000    
      KODE = 3  NTRIAL =   9  T = 491.0443  P = 1.500000E+06  V =  0.00000      BETA =  1.00000      Q =  0.00000    
      KODE = 3  NTRIAL =   9  T = 489.3981  P = 1.500000E+06  V =  0.00000      BETA =  1.00000      Q =  0.00000    
      KODE = 3  NTRIAL =   9  T = 487.8596  P = 1.500000E+06  V =  0.00000      BETA =  1.00000      Q =  0.00000    
      KODE = 3  NTRIAL =   9  T = 486.4199  P = 1.500000E+06  V =  0.00000      BETA =  1.00000      Q =  0.00000    
      KODE = 3  NTRIAL =   9  T = 485.0711  P = 1.500000E+06  V =  0.00000      BETA =  1.00000      Q =  0.00000    
      KODE = 3  NTRIAL =   9  T = 483.8062  P = 1.500000E+06  V =  0.00000      BETA =  1.00000      Q =  0.00000    
      KODE = 3  NTRIAL =   9  T = 482.6190  P = 1.500000E+06  V =  0.00000      BETA =  1.00000      Q =  0.00000    
      KODE = 3  NTRIAL =   9  T = 481.5039  P = 1.500000E+06  V =  0.00000      BETA =  1.00000      Q =  0.00000    
      KODE = 3  NTRIAL =   9  T = 480.4558  P = 1.500000E+06  V =  0.00000      BETA =  1.00000      Q =  0.00000    
      KODE = 3  NTRIAL =   9  T = 479.4703  P = 1.500000E+06  V =  0.00000      BETA =  1.00000      Q =  0.00000    
      KODE = 3  NTRIAL =   9  T = 478.5433  P = 1.500000E+06  V =  0.00000      BETA =  1.00000      Q =  0.00000    
      KODE = 3  NTRIAL =   9  T = 477.6710  P = 1.500000E+06  V =  0.00000      BETA =  1.00000      Q =  0.00000    
      KODE = 3  NTRIAL =   9  T = 476.8501  P = 1.500000E+06  V =  0.00000      BETA =  1.00000      Q =  0.00000    
      KODE = 3  NTRIAL =   9  T = 476.0776  P = 1.500000E+06  V =  0.00000      BETA =  1.00000      Q =  0.00000    
      KODE = 3  NTRIAL =   9  T = 475.3506  P = 1.500000E+06  V =  0.00000      BETA =  1.00000      Q =  0.00000    
      KODE = 3  NTRIAL =   9  T = 474.6666  P = 1.500000E+06  V =  0.00000      BETA =  1.00000      Q =  0.00000    
      KODE = 3  NTRIAL =  28  T = 474.0232  P = 1.500000E+06  V =  0.00000      BETA =  1.00000      Q =  0.00000    
      KODE = 3  NTRIAL =  28  T = 473.4183  P = 1.500000E+06  V =  0.00000      BETA =  1.00000      Q =  0.00000    
      KODE = 3  NTRIAL =  12  T = 472.8499  P = 1.500000E+06  V =  0.00000      BETA =  1.00000      Q =  0.00000    
      KODE = 3  NTRIAL =  11  T = 472.3161  P = 1.500000E+06  V =  0.00000      BETA =  1.00000      Q =  0.00000    
      KODE = 3  NTRIAL =  11  T = 471.8153  P = 1.500000E+06  V =  0.00000      BETA =  1.00000      Q =  0.00000    
      KODE = 3  NTRIAL =  11  T = 471.3459  P = 1.500000E+06  V =  0.00000      BETA =  1.00000      Q =  0.00000    
      KODE = 3  NTRIAL =  11  T = 470.9063  P = 1.500000E+06  V =  0.00000      BETA =  1.00000      Q =  0.00000    
      KODE = 3  NTRIAL =  11  T = 470.4954  P = 1.500000E+06  V =  0.00000      BETA =  1.00000      Q =  0.00000    
      KODE = 3  NTRIAL =  11  T = 470.1117  P = 1.500000E+06  V =  0.00000      BETA =  1.00000      Q =  0.00000    
      KODE = 3  NTRIAL =  11  T = 469.7540  P = 1.500000E+06  V =  0.00000      BETA =  1.00000      Q =  0.00000    
      KODE = 3  NTRIAL =  11  T = 469.4214  P = 1.500000E+06  V =  0.00000      BETA =  1.00000      Q =  0.00000    
      KODE = 3  NTRIAL =  12  T = 469.1127  P = 1.500000E+06  V =  0.00000      BETA =  1.00000      Q =  0.00000    
      KODE = 3  NTRIAL =  13  T = 468.8270  P = 1.500000E+06  V =  0.00000      BETA =  1.00000      Q =  0.00000    
      KODE = 3  NTRIAL =  15  T = 468.6254  P = 1.500000E+06  V =  0.00000      BETA = 0.994869      Q =  0.00000    
      KODE = 3  NTRIAL =   2  T = 468.6254  P = 1.500000E+06  V =  0.00000      BETA = 0.973741      Q =  0.00000    
      KODE = 3  NTRIAL =   2  T = 468.6254  P = 1.500000E+06  V =  0.00000      BETA = 0.952612      Q =  0.00000    
      KODE = 3  NTRIAL =   2  T = 468.6254  P = 1.500000E+06  V =  0.00000      BETA = 0.931483      Q =  0.00000    
      KODE = 3  NTRIAL =   2  T = 468.6254  P = 1.500000E+06  V =  0.00000      BETA = 0.910355      Q =  0.00000    
      KODE = 3  NTRIAL =   2  T = 468.6254  P = 1.500000E+06  V =  0.00000      BETA = 0.889226      Q =  0.00000    
      KODE = 3  NTRIAL =   2  T = 468.6254  P = 1.500000E+06  V =  0.00000      BETA = 0.868097      Q =  0.00000    
      KODE = 3  NTRIAL =   2  T = 468.6254  P = 1.500000E+06  V =  0.00000      BETA = 0.846969      Q =  0.00000    
      KODE = 3  NTRIAL =   2  T = 468.6254  P = 1.500000E+06  V =  0.00000      BETA = 0.825840      Q =  0.00000    
      KODE = 3  NTRIAL =   2  T = 468.6254  P = 1.500000E+06  V =  0.00000      BETA = 0.804711      Q =  0.00000    
      KODE = 3  NTRIAL =   2  T = 468.6254  P = 1.500000E+06  V =  0.00000      BETA = 0.783583      Q =  0.00000    
      KODE = 3  NTRIAL =   2  T = 468.6254  P = 1.500000E+06  V =  0.00000      BETA = 0.762454      Q =  0.00000    
      KODE = 3  NTRIAL =   2  T = 468.6254  P = 1.500000E+06  V =  0.00000      BETA = 0.741325      Q =  0.00000    
      KODE = 3  NTRIAL =   2  T = 468.6254  P = 1.500000E+06  V =  0.00000      BETA = 0.720197      Q =  0.00000    
      KODE = 3  NTRIAL =   2  T = 468.6254  P = 1.500000E+06  V =  0.00000      BETA = 0.699068      Q =  0.00000    
      KODE = 3  NTRIAL =   2  T = 468.6254  P = 1.500000E+06  V =  0.00000      BETA = 0.677939      Q =  0.00000    
      KODE = 3  NTRIAL =   2  T = 468.6254  P = 1.500000E+06  V =  0.00000      BETA = 0.656811      Q =  0.00000    
      KODE = 3  NTRIAL =   2  T = 468.6254  P = 1.500000E+06  V =  0.00000      BETA = 0.635682      Q =  0.00000    
      KODE = 3  NTRIAL =   2  T = 468.6254  P = 1.500000E+06  V =  0.00000      BETA = 0.614553      Q =  0.00000    
      KODE = 3  NTRIAL =   2  T = 468.6254  P = 1.500000E+06  V =  0.00000      BETA = 0.593424      Q =  0.00000    
      KODE = 3  NTRIAL =   2  T = 468.6254  P = 1.500000E+06  V =  0.00000      BETA = 0.572296      Q =  0.00000    
      KODE = 3  NTRIAL =   2  T = 468.6254  P = 1.500000E+06  V =  0.00000      BETA = 0.551167      Q =  0.00000    
      KODE = 3  NTRIAL =   2  T = 468.6254  P = 1.500000E+06  V =  0.00000      BETA = 0.530038      Q =  0.00000    
      KODE = 3  NTRIAL =   2  T = 468.6254  P = 1.500000E+06  V =  0.00000      BETA = 0.508910      Q =  0.00000    
      KODE = 3  NTRIAL =   2  T = 468.6254  P = 1.500000E+06  V =  0.00000      BETA = 0.487781      Q =  0.00000    
      KODE = 3  NTRIAL =   2  T = 468.6254  P = 1.500000E+06  V =  0.00000      BETA = 0.466652      Q =  0.00000    
      KODE = 3  NTRIAL =   2  T = 468.6254  P = 1.500000E+06  V =  0.00000      BETA = 0.445524      Q =  0.00000    
      KODE = 3  NTRIAL =   2  T = 468.6254  P = 1.500000E+06  V =  0.00000      BETA = 0.424395      Q =  0.00000    
      KODE = 3  NTRIAL =   2  T = 468.6254  P = 1.500000E+06  V =  0.00000      BETA = 0.403266      Q =  0.00000    
      KODE = 3  NTRIAL =   2  T = 468.6254  P = 1.500000E+06  V =  0.00000      BETA = 0.382138      Q =  0.00000    
      KODE = 3  NTRIAL =   2  T = 468.6254  P = 1.500000E+06  V =  0.00000      BETA = 0.361009      Q =  0.00000    
      KODE = 3  NTRIAL =   2  T = 468.6254  P = 1.500000E+06  V =  0.00000      BETA = 0.339880      Q =  0.00000    
      KODE = 3  NTRIAL =   2  T = 468.6254  P = 1.500000E+06  V =  0.00000      BETA = 0.318752      Q =  0.00000    
      KODE = 3  NTRIAL =   2  T = 468.6254  P = 1.500000E+06  V =  0.00000      BETA = 0.297623      Q =  0.00000    
      KODE = 3  NTRIAL =   2  T = 468.6254  P = 1.500000E+06  V =  0.00000      BETA = 0.276494      Q =  0.00000    
      KODE = 3  NTRIAL =   2  T = 468.6254  P = 1.500000E+06  V =  0.00000      BETA = 0.255366      Q =  0.00000    
      KODE = 3  NTRIAL =   2  T = 468.6254  P = 1.500000E+06  V =  0.00000      BETA = 0.234237      Q =  0.00000    
      KODE = 3  NTRIAL =   2  T = 468.6254  P = 1.500000E+06  V =  0.00000      BETA = 0.213108      Q =  0.00000    
      KODE = 3  NTRIAL =   2  T = 468.6254  P = 1.500000E+06  V =  0.00000      BETA = 0.191980      Q =  0.00000    
      KODE = 3  NTRIAL =   2  T = 468.6254  P = 1.500000E+06  V =  0.00000      BETA = 0.170851      Q =  0.00000    
      KODE = 3  NTRIAL =   2  T = 468.6254  P = 1.500000E+06  V =  0.00000      BETA = 0.149722      Q =  0.00000    
      KODE = 3  NTRIAL =   2  T = 468.6254  P = 1.500000E+06  V =  0.00000      BETA = 0.128594      Q =  0.00000    
      KODE = 3  NTRIAL =   2  T = 468.6254  P = 1.500000E+06  V =  0.00000      BETA = 0.107465      Q =  0.00000    
      KODE = 3  NTRIAL =   2  T = 468.6254  P = 1.500000E+06  V =  0.00000      BETA = 8.633616E-02  Q =  0.00000    
      KODE = 3  NTRIAL =   2  T = 468.6254  P = 1.500000E+06  V =  0.00000      BETA = 6.520748E-02  Q =  0.00000    
      KODE = 3  NTRIAL =   2  T = 468.6254  P = 1.500000E+06  V =  0.00000      BETA = 4.407880E-02  Q =  0.00000    
      KODE = 3  NTRIAL =   2  T = 468.6254  P = 1.500000E+06  V =  0.00000      BETA = 2.295012E-02  Q =  0.00000    
      KODE = 3  NTRIAL =   2  T = 468.6254  P = 1.500000E+06  V =  0.00000      BETA = 1.821443E-03  Q =  0.00000    
      KODE = 3  NTRIAL =  17  T = 469.0753  P = 1.500000E+06  V =  0.00000      BETA =  1.00000      Q =  0.00000    
      KODE = 3  NTRIAL =   7  T = 469.9623  P = 1.500000E+06  V =  0.00000      BETA =  1.00000      Q =  0.00000    
      KODE = 3  NTRIAL =   4  T = 471.5536  P = 1.500000E+06  V =  0.00000      BETA =  1.00000      Q =  0.00000    

 Results generated                                                                Time =     81.03


*** INPUT SPECIFICATION MESSAGES ***

 CHANGES WERE MADE TO BLOCK        S101     03/25/2026   17:55:09:99 
 BLOCK S101 FLASH2
     PARAM TEMP=25. PRES=1. <atm> NPHASE=3
     BLOCK-OPTION FREE-WATER=NO

 DISABLE      IS  NEW 03/25/2026   17:55:09:99 
 DISABLE
     SENSITIVITY RSIZE-1

 PDF updated                                                                      TIME =    249.98
 THIS COPY OF ASPEN PLUS LICENSED TO UNIVERSITY OF BRITISH CO        
 
 SENSITIVITY BLOCK: RSIZE-1 WILL BE INTERPRETED 
 


Calculations begin                                                              time    250.13


      UOS BLOCK S101     MODEL: FLASH2                                            TIME =    250.14
      KODE = 2  NTRIAL =   8  T = 298.1500  P =  101325.      V = 0.420280      BETA = 0.531553      Q =-9.997678E+06

 Report Writer entered                                                            Time =    250.19

      BEGIN CALCULATIONS FOR PROP-TABLE BINRY-1                                   TIME =    250.26
      KODE = 3  NTRIAL =   8  T = 596.3156  P = 1.500000E+06  V =  0.00000      BETA =  1.00000      Q =  0.00000    
      KODE = 3  NTRIAL =  11  T = 584.8493  P = 1.500000E+06  V =  0.00000      BETA =  1.00000      Q =  0.00000    
      KODE = 3  NTRIAL =  11  T = 574.2191  P = 1.500000E+06  V =  0.00000      BETA =  1.00000      Q =  0.00000    
      KODE = 3  NTRIAL =  11  T = 564.5782  P = 1.500000E+06  V =  0.00000      BETA =  1.00000      Q =  0.00000    
      KODE = 3  NTRIAL =  11  T = 555.9453  P = 1.500000E+06  V =  0.00000      BETA =  1.00000      Q =  0.00000    
      KODE = 3  NTRIAL =  11  T = 548.2589  P = 1.500000E+06  V =  0.00000      BETA =  1.00000      Q =  0.00000    
      KODE = 3  NTRIAL =  11  T = 541.4223  P = 1.500000E+06  V =  0.00000      BETA =  1.00000      Q =  0.00000    
      KODE = 3  NTRIAL =  11  T = 535.3309  P = 1.500000E+06  V =  0.00000      BETA =  1.00000      Q =  0.00000    
      KODE = 3  NTRIAL =  11  T = 529.8854  P = 1.500000E+06  V =  0.00000      BETA =  1.00000      Q =  0.00000    
      KODE = 3  NTRIAL =  11  T = 524.9978  P = 1.500000E+06  V =  0.00000      BETA =  1.00000      Q =  0.00000    
      KODE = 3  NTRIAL =  11  T = 520.5922  P = 1.500000E+06  V =  0.00000      BETA =  1.00000      Q =  0.00000    
      KODE = 3  NTRIAL =  11  T = 516.6040  P = 1.500000E+06  V =  0.00000      BETA =  1.00000      Q =  0.00000    
      KODE = 3  NTRIAL =  11  T = 512.9791  P = 1.500000E+06  V =  0.00000      BETA =  1.00000      Q =  0.00000    
      KODE = 3  NTRIAL =  10  T = 509.6717  P = 1.500000E+06  V =  0.00000      BETA =  1.00000      Q =  0.00000    
      KODE = 3  NTRIAL =  10  T = 506.6433  P = 1.500000E+06  V =  0.00000      BETA =  1.00000      Q =  0.00000    
      KODE = 3  NTRIAL =  10  T = 503.8613  P = 1.500000E+06  V =  0.00000      BETA =  1.00000      Q =  0.00000    
      KODE = 3  NTRIAL =   9  T = 501.2981  P = 1.500000E+06  V =  0.00000      BETA =  1.00000      Q =  0.00000    
      KODE = 3  NTRIAL =   9  T = 498.9301  P = 1.500000E+06  V =  0.00000      BETA =  1.00000      Q =  0.00000    
      KODE = 3  NTRIAL =   9  T = 496.7370  P = 1.500000E+06  V =  0.00000      BETA =  1.00000      Q =  0.00000    
      KODE = 3  NTRIAL =   9  T = 494.7014  P = 1.500000E+06  V =  0.00000      BETA =  1.00000      Q =  0.00000    
      KODE = 3  NTRIAL =   9  T = 492.8082  P = 1.500000E+06  V =  0.00000      BETA =  1.00000      Q =  0.00000    
      KODE = 3  NTRIAL =   9  T = 491.0443  P = 1.500000E+06  V =  0.00000      BETA =  1.00000      Q =  0.00000    
      KODE = 3  NTRIAL =   9  T = 489.3981  P = 1.500000E+06  V =  0.00000      BETA =  1.00000      Q =  0.00000    
      KODE = 3  NTRIAL =   9  T = 487.8596  P = 1.500000E+06  V =  0.00000      BETA =  1.00000      Q =  0.00000    
      KODE = 3  NTRIAL =   9  T = 486.4199  P = 1.500000E+06  V =  0.00000      BETA =  1.00000      Q =  0.00000    
      KODE = 3  NTRIAL =   9  T = 485.0711  P = 1.500000E+06  V =  0.00000      BETA =  1.00000      Q =  0.00000    
      KODE = 3  NTRIAL =   9  T = 483.8062  P = 1.500000E+06  V =  0.00000      BETA =  1.00000      Q =  0.00000    
      KODE = 3  NTRIAL =   9  T = 482.6190  P = 1.500000E+06  V =  0.00000      BETA =  1.00000      Q =  0.00000    
      KODE = 3  NTRIAL =   9  T = 481.5039  P = 1.500000E+06  V =  0.00000      BETA =  1.00000      Q =  0.00000    
      KODE = 3  NTRIAL =   9  T = 480.4558  P = 1.500000E+06  V =  0.00000      BETA =  1.00000      Q =  0.00000    
      KODE = 3  NTRIAL =   9  T = 479.4703  P = 1.500000E+06  V =  0.00000      BETA =  1.00000      Q =  0.00000    
      KODE = 3  NTRIAL =   9  T = 478.5433  P = 1.500000E+06  V =  0.00000      BETA =  1.00000      Q =  0.00000    
      KODE = 3  NTRIAL =   9  T = 477.6710  P = 1.500000E+06  V =  0.00000      BETA =  1.00000      Q =  0.00000    
      KODE = 3  NTRIAL =   9  T = 476.8501  P = 1.500000E+06  V =  0.00000      BETA =  1.00000      Q =  0.00000    
      KODE = 3  NTRIAL =   9  T = 476.0776  P = 1.500000E+06  V =  0.00000      BETA =  1.00000      Q =  0.00000    
      KODE = 3  NTRIAL =   9  T = 475.3506  P = 1.500000E+06  V =  0.00000      BETA =  1.00000      Q =  0.00000    
      KODE = 3  NTRIAL =   9  T = 474.6666  P = 1.500000E+06  V =  0.00000      BETA =  1.00000      Q =  0.00000    
      KODE = 3  NTRIAL =  28  T = 474.0232  P = 1.500000E+06  V =  0.00000      BETA =  1.00000      Q =  0.00000    
      KODE = 3  NTRIAL =  28  T = 473.4183  P = 1.500000E+06  V =  0.00000      BETA =  1.00000      Q =  0.00000    
      KODE = 3  NTRIAL =  12  T = 472.8499  P = 1.500000E+06  V =  0.00000      BETA =  1.00000      Q =  0.00000    
      KODE = 3  NTRIAL =  11  T = 472.3161  P = 1.500000E+06  V =  0.00000      BETA =  1.00000      Q =  0.00000    
      KODE = 3  NTRIAL =  11  T = 471.8153  P = 1.500000E+06  V =  0.00000      BETA =  1.00000      Q =  0.00000    
      KODE = 3  NTRIAL =  11  T = 471.3459  P = 1.500000E+06  V =  0.00000      BETA =  1.00000      Q =  0.00000    
      KODE = 3  NTRIAL =  11  T = 470.9063  P = 1.500000E+06  V =  0.00000      BETA =  1.00000      Q =  0.00000    
      KODE = 3  NTRIAL =  11  T = 470.4954  P = 1.500000E+06  V =  0.00000      BETA =  1.00000      Q =  0.00000    
      KODE = 3  NTRIAL =  11  T = 470.1117  P = 1.500000E+06  V =  0.00000      BETA =  1.00000      Q =  0.00000    
      KODE = 3  NTRIAL =  11  T = 469.7540  P = 1.500000E+06  V =  0.00000      BETA =  1.00000      Q =  0.00000    
      KODE = 3  NTRIAL =  11  T = 469.4214  P = 1.500000E+06  V =  0.00000      BETA =  1.00000      Q =  0.00000    
      KODE = 3  NTRIAL =  12  T = 469.1127  P = 1.500000E+06  V =  0.00000      BETA =  1.00000      Q =  0.00000    
      KODE = 3  NTRIAL =  13  T = 468.8270  P = 1.500000E+06  V =  0.00000      BETA =  1.00000      Q =  0.00000    
      KODE = 3  NTRIAL =  15  T = 468.6254  P = 1.500000E+06  V =  0.00000      BETA = 0.994869      Q =  0.00000    
      KODE = 3  NTRIAL =   2  T = 468.6254  P = 1.500000E+06  V =  0.00000      BETA = 0.973741      Q =  0.00000    
      KODE = 3  NTRIAL =   2  T = 468.6254  P = 1.500000E+06  V =  0.00000      BETA = 0.952612      Q =  0.00000    
      KODE = 3  NTRIAL =   2  T = 468.6254  P = 1.500000E+06  V =  0.00000      BETA = 0.931483      Q =  0.00000    
      KODE = 3  NTRIAL =   2  T = 468.6254  P = 1.500000E+06  V =  0.00000      BETA = 0.910355      Q =  0.00000    
      KODE = 3  NTRIAL =   2  T = 468.6254  P = 1.500000E+06  V =  0.00000      BETA = 0.889226      Q =  0.00000    
      KODE = 3  NTRIAL =   2  T = 468.6254  P = 1.500000E+06  V =  0.00000      BETA = 0.868097      Q =  0.00000    
      KODE = 3  NTRIAL =   2  T = 468.6254  P = 1.500000E+06  V =  0.00000      BETA = 0.846969      Q =  0.00000    
      KODE = 3  NTRIAL =   2  T = 468.6254  P = 1.500000E+06  V =  0.00000      BETA = 0.825840      Q =  0.00000    
      KODE = 3  NTRIAL =   2  T = 468.6254  P = 1.500000E+06  V =  0.00000      BETA = 0.804711      Q =  0.00000    
      KODE = 3  NTRIAL =   2  T = 468.6254  P = 1.500000E+06  V =  0.00000      BETA = 0.783583      Q =  0.00000    
      KODE = 3  NTRIAL =   2  T = 468.6254  P = 1.500000E+06  V =  0.00000      BETA = 0.762454      Q =  0.00000    
      KODE = 3  NTRIAL =   2  T = 468.6254  P = 1.500000E+06  V =  0.00000      BETA = 0.741325      Q =  0.00000    
      KODE = 3  NTRIAL =   2  T = 468.6254  P = 1.500000E+06  V =  0.00000      BETA = 0.720197      Q =  0.00000    
      KODE = 3  NTRIAL =   2  T = 468.6254  P = 1.500000E+06  V =  0.00000      BETA = 0.699068      Q =  0.00000    
      KODE = 3  NTRIAL =   2  T = 468.6254  P = 1.500000E+06  V =  0.00000      BETA = 0.677939      Q =  0.00000    
      KODE = 3  NTRIAL =   2  T = 468.6254  P = 1.500000E+06  V =  0.00000      BETA = 0.656811      Q =  0.00000    
      KODE = 3  NTRIAL =   2  T = 468.6254  P = 1.500000E+06  V =  0.00000      BETA = 0.635682      Q =  0.00000    
      KODE = 3  NTRIAL =   2  T = 468.6254  P = 1.500000E+06  V =  0.00000      BETA = 0.614553      Q =  0.00000    
      KODE = 3  NTRIAL =   2  T = 468.6254  P = 1.500000E+06  V =  0.00000      BETA = 0.593424      Q =  0.00000    
      KODE = 3  NTRIAL =   2  T = 468.6254  P = 1.500000E+06  V =  0.00000      BETA = 0.572296      Q =  0.00000    
      KODE = 3  NTRIAL =   2  T = 468.6254  P = 1.500000E+06  V =  0.00000      BETA = 0.551167      Q =  0.00000    
      KODE = 3  NTRIAL =   2  T = 468.6254  P = 1.500000E+06  V =  0.00000      BETA = 0.530038      Q =  0.00000    
      KODE = 3  NTRIAL =   2  T = 468.6254  P = 1.500000E+06  V =  0.00000      BETA = 0.508910      Q =  0.00000    
      KODE = 3  NTRIAL =   2  T = 468.6254  P = 1.500000E+06  V =  0.00000      BETA = 0.487781      Q =  0.00000    
      KODE = 3  NTRIAL =   2  T = 468.6254  P = 1.500000E+06  V =  0.00000      BETA = 0.466652      Q =  0.00000    
      KODE = 3  NTRIAL =   2  T = 468.6254  P = 1.500000E+06  V =  0.00000      BETA = 0.445524      Q =  0.00000    
      KODE = 3  NTRIAL =   2  T = 468.6254  P = 1.500000E+06  V =  0.00000      BETA = 0.424395      Q =  0.00000    
      KODE = 3  NTRIAL =   2  T = 468.6254  P = 1.500000E+06  V =  0.00000      BETA = 0.403266      Q =  0.00000    
      KODE = 3  NTRIAL =   2  T = 468.6254  P = 1.500000E+06  V =  0.00000      BETA = 0.382138      Q =  0.00000    
      KODE = 3  NTRIAL =   2  T = 468.6254  P = 1.500000E+06  V =  0.00000      BETA = 0.361009      Q =  0.00000    
      KODE = 3  NTRIAL =   2  T = 468.6254  P = 1.500000E+06  V =  0.00000      BETA = 0.339880      Q =  0.00000    
      KODE = 3  NTRIAL =   2  T = 468.6254  P = 1.500000E+06  V =  0.00000      BETA = 0.318752      Q =  0.00000    
      KODE = 3  NTRIAL =   2  T = 468.6254  P = 1.500000E+06  V =  0.00000      BETA = 0.297623      Q =  0.00000    
      KODE = 3  NTRIAL =   2  T = 468.6254  P = 1.500000E+06  V =  0.00000      BETA = 0.276494      Q =  0.00000    
      KODE = 3  NTRIAL =   2  T = 468.6254  P = 1.500000E+06  V =  0.00000      BETA = 0.255366      Q =  0.00000    
      KODE = 3  NTRIAL =   2  T = 468.6254  P = 1.500000E+06  V =  0.00000      BETA = 0.234237      Q =  0.00000    
      KODE = 3  NTRIAL =   2  T = 468.6254  P = 1.500000E+06  V =  0.00000      BETA = 0.213108      Q =  0.00000    
      KODE = 3  NTRIAL =   2  T = 468.6254  P = 1.500000E+06  V =  0.00000      BETA = 0.191980      Q =  0.00000    
      KODE = 3  NTRIAL =   2  T = 468.6254  P = 1.500000E+06  V =  0.00000      BETA = 0.170851      Q =  0.00000    
      KODE = 3  NTRIAL =   2  T = 468.6254  P = 1.500000E+06  V =  0.00000      BETA = 0.149722      Q =  0.00000    
      KODE = 3  NTRIAL =   2  T = 468.6254  P = 1.500000E+06  V =  0.00000      BETA = 0.128594      Q =  0.00000    
      KODE = 3  NTRIAL =   2  T = 468.6254  P = 1.500000E+06  V =  0.00000      BETA = 0.107465      Q =  0.00000    
      KODE = 3  NTRIAL =   2  T = 468.6254  P = 1.500000E+06  V =  0.00000      BETA = 8.633616E-02  Q =  0.00000    
      KODE = 3  NTRIAL =   2  T = 468.6254  P = 1.500000E+06  V =  0.00000      BETA = 6.520748E-02  Q =  0.00000    
      KODE = 3  NTRIAL =   2  T = 468.6254  P = 1.500000E+06  V =  0.00000      BETA = 4.407880E-02  Q =  0.00000    
      KODE = 3  NTRIAL =   2  T = 468.6254  P = 1.500000E+06  V =  0.00000      BETA = 2.295012E-02  Q =  0.00000    
      KODE = 3  NTRIAL =   2  T = 468.6254  P = 1.500000E+06  V =  0.00000      BETA = 1.821443E-03  Q =  0.00000    
      KODE = 3  NTRIAL =  17  T = 469.0753  P = 1.500000E+06  V =  0.00000      BETA =  1.00000      Q =  0.00000    
      KODE = 3  NTRIAL =   7  T = 469.9623  P = 1.500000E+06  V =  0.00000      BETA =  1.00000      Q =  0.00000    
      KODE = 3  NTRIAL =   4  T = 471.5536  P = 1.500000E+06  V =  0.00000      BETA =  1.00000      Q =  0.00000    

 Results generated                                                                Time =    250.38


*** INPUT SPECIFICATION MESSAGES ***

 CHANGES WERE MADE TO BLOCK        S101     03/25/2026   17:55:48:99 
 BLOCK S101 FLASH2
     PARAM PRES=0. <MPa> DUTY=0. NPHASE=3
     BLOCK-OPTION FREE-WATER=NO

 DISABLE      IS  NEW 03/25/2026   17:55:48:99 
 DISABLE
     SENSITIVITY RSIZE-1

 PDF updated                                                                      TIME =    288.74
 THIS COPY OF ASPEN PLUS LICENSED TO UNIVERSITY OF BRITISH CO        
 
 SENSITIVITY BLOCK: RSIZE-1 WILL BE INTERPRETED 
 


Calculations begin                                                              time    288.88


      UOS BLOCK S101     MODEL: FLASH2                                            TIME =    288.88
      NO. TEMP ITER =    5     TEMP =  623.150    
      KODE = 1  NTRIAL =  10  T = 623.1500  P = 1.500000E+06  V =  1.00000      BETA =  1.00000      Q =  0.00000    

 Report Writer entered                                                            Time =    288.91

      BEGIN CALCULATIONS FOR PROP-TABLE BINRY-1                                   TIME =    288.98
      KODE = 3  NTRIAL =   8  T = 596.3156  P = 1.500000E+06  V =  0.00000      BETA =  1.00000      Q =  0.00000    
      KODE = 3  NTRIAL =  11  T = 584.8493  P = 1.500000E+06  V =  0.00000      BETA =  1.00000      Q =  0.00000    
      KODE = 3  NTRIAL =  11  T = 574.2191  P = 1.500000E+06  V =  0.00000      BETA =  1.00000      Q =  0.00000    
      KODE = 3  NTRIAL =  11  T = 564.5782  P = 1.500000E+06  V =  0.00000      BETA =  1.00000      Q =  0.00000    
      KODE = 3  NTRIAL =  11  T = 555.9453  P = 1.500000E+06  V =  0.00000      BETA =  1.00000      Q =  0.00000    
      KODE = 3  NTRIAL =  11  T = 548.2589  P = 1.500000E+06  V =  0.00000      BETA =  1.00000      Q =  0.00000    
      KODE = 3  NTRIAL =  11  T = 541.4223  P = 1.500000E+06  V =  0.00000      BETA =  1.00000      Q =  0.00000    
      KODE = 3  NTRIAL =  11  T = 535.3309  P = 1.500000E+06  V =  0.00000      BETA =  1.00000      Q =  0.00000    
      KODE = 3  NTRIAL =  11  T = 529.8854  P = 1.500000E+06  V =  0.00000      BETA =  1.00000      Q =  0.00000    
      KODE = 3  NTRIAL =  11  T = 524.9978  P = 1.500000E+06  V =  0.00000      BETA =  1.00000      Q =  0.00000    
      KODE = 3  NTRIAL =  11  T = 520.5922  P = 1.500000E+06  V =  0.00000      BETA =  1.00000      Q =  0.00000    
      KODE = 3  NTRIAL =  11  T = 516.6040  P = 1.500000E+06  V =  0.00000      BETA =  1.00000      Q =  0.00000    
      KODE = 3  NTRIAL =  11  T = 512.9791  P = 1.500000E+06  V =  0.00000      BETA =  1.00000      Q =  0.00000    
      KODE = 3  NTRIAL =  10  T = 509.6717  P = 1.500000E+06  V =  0.00000      BETA =  1.00000      Q =  0.00000    
      KODE = 3  NTRIAL =  10  T = 506.6433  P = 1.500000E+06  V =  0.00000      BETA =  1.00000      Q =  0.00000    
      KODE = 3  NTRIAL =  10  T = 503.8613  P = 1.500000E+06  V =  0.00000      BETA =  1.00000      Q =  0.00000    
      KODE = 3  NTRIAL =   9  T = 501.2981  P = 1.500000E+06  V =  0.00000      BETA =  1.00000      Q =  0.00000    
      KODE = 3  NTRIAL =   9  T = 498.9301  P = 1.500000E+06  V =  0.00000      BETA =  1.00000      Q =  0.00000    
      KODE = 3  NTRIAL =   9  T = 496.7370  P = 1.500000E+06  V =  0.00000      BETA =  1.00000      Q =  0.00000    
      KODE = 3  NTRIAL =   9  T = 494.7014  P = 1.500000E+06  V =  0.00000      BETA =  1.00000      Q =  0.00000    
      KODE = 3  NTRIAL =   9  T = 492.8082  P = 1.500000E+06  V =  0.00000      BETA =  1.00000      Q =  0.00000    
      KODE = 3  NTRIAL =   9  T = 491.0443  P = 1.500000E+06  V =  0.00000      BETA =  1.00000      Q =  0.00000    
      KODE = 3  NTRIAL =   9  T = 489.3981  P = 1.500000E+06  V =  0.00000      BETA =  1.00000      Q =  0.00000    
      KODE = 3  NTRIAL =   9  T = 487.8596  P = 1.500000E+06  V =  0.00000      BETA =  1.00000      Q =  0.00000    
      KODE = 3  NTRIAL =   9  T = 486.4199  P = 1.500000E+06  V =  0.00000      BETA =  1.00000      Q =  0.00000    
      KODE = 3  NTRIAL =   9  T = 485.0711  P = 1.500000E+06  V =  0.00000      BETA =  1.00000      Q =  0.00000    
      KODE = 3  NTRIAL =   9  T = 483.8062  P = 1.500000E+06  V =  0.00000      BETA =  1.00000      Q =  0.00000    
      KODE = 3  NTRIAL =   9  T = 482.6190  P = 1.500000E+06  V =  0.00000      BETA =  1.00000      Q =  0.00000    
      KODE = 3  NTRIAL =   9  T = 481.5039  P = 1.500000E+06  V =  0.00000      BETA =  1.00000      Q =  0.00000    
      KODE = 3  NTRIAL =   9  T = 480.4558  P = 1.500000E+06  V =  0.00000      BETA =  1.00000      Q =  0.00000    
      KODE = 3  NTRIAL =   9  T = 479.4703  P = 1.500000E+06  V =  0.00000      BETA =  1.00000      Q =  0.00000    
      KODE = 3  NTRIAL =   9  T = 478.5433  P = 1.500000E+06  V =  0.00000      BETA =  1.00000      Q =  0.00000    
      KODE = 3  NTRIAL =   9  T = 477.6710  P = 1.500000E+06  V =  0.00000      BETA =  1.00000      Q =  0.00000    
      KODE = 3  NTRIAL =   9  T = 476.8501  P = 1.500000E+06  V =  0.00000      BETA =  1.00000      Q =  0.00000    
      KODE = 3  NTRIAL =   9  T = 476.0776  P = 1.500000E+06  V =  0.00000      BETA =  1.00000      Q =  0.00000    
      KODE = 3  NTRIAL =   9  T = 475.3506  P = 1.500000E+06  V =  0.00000      BETA =  1.00000      Q =  0.00000    
      KODE = 3  NTRIAL =   9  T = 474.6666  P = 1.500000E+06  V =  0.00000      BETA =  1.00000      Q =  0.00000    
      KODE = 3  NTRIAL =  28  T = 474.0232  P = 1.500000E+06  V =  0.00000      BETA =  1.00000      Q =  0.00000    
      KODE = 3  NTRIAL =  28  T = 473.4183  P = 1.500000E+06  V =  0.00000      BETA =  1.00000      Q =  0.00000    
      KODE = 3  NTRIAL =  12  T = 472.8499  P = 1.500000E+06  V =  0.00000      BETA =  1.00000      Q =  0.00000    
      KODE = 3  NTRIAL =  11  T = 472.3161  P = 1.500000E+06  V =  0.00000      BETA =  1.00000      Q =  0.00000    
      KODE = 3  NTRIAL =  11  T = 471.8153  P = 1.500000E+06  V =  0.00000      BETA =  1.00000      Q =  0.00000    
      KODE = 3  NTRIAL =  11  T = 471.3459  P = 1.500000E+06  V =  0.00000      BETA =  1.00000      Q =  0.00000    
      KODE = 3  NTRIAL =  11  T = 470.9063  P = 1.500000E+06  V =  0.00000      BETA =  1.00000      Q =  0.00000    
      KODE = 3  NTRIAL =  11  T = 470.4954  P = 1.500000E+06  V =  0.00000      BETA =  1.00000      Q =  0.00000    
      KODE = 3  NTRIAL =  11  T = 470.1117  P = 1.500000E+06  V =  0.00000      BETA =  1.00000      Q =  0.00000    
      KODE = 3  NTRIAL =  11  T = 469.7540  P = 1.500000E+06  V =  0.00000      BETA =  1.00000      Q =  0.00000    
      KODE = 3  NTRIAL =  11  T = 469.4214  P = 1.500000E+06  V =  0.00000      BETA =  1.00000      Q =  0.00000    
      KODE = 3  NTRIAL =  12  T = 469.1127  P = 1.500000E+06  V =  0.00000      BETA =  1.00000      Q =  0.00000    
      KODE = 3  NTRIAL =  13  T = 468.8270  P = 1.500000E+06  V =  0.00000      BETA =  1.00000      Q =  0.00000    
      KODE = 3  NTRIAL =  15  T = 468.6254  P = 1.500000E+06  V =  0.00000      BETA = 0.994869      Q =  0.00000    
      KODE = 3  NTRIAL =   2  T = 468.6254  P = 1.500000E+06  V =  0.00000      BETA = 0.973741      Q =  0.00000    
      KODE = 3  NTRIAL =   2  T = 468.6254  P = 1.500000E+06  V =  0.00000      BETA = 0.952612      Q =  0.00000    
      KODE = 3  NTRIAL =   2  T = 468.6254  P = 1.500000E+06  V =  0.00000      BETA = 0.931483      Q =  0.00000    
      KODE = 3  NTRIAL =   2  T = 468.6254  P = 1.500000E+06  V =  0.00000      BETA = 0.910355      Q =  0.00000    
      KODE = 3  NTRIAL =   2  T = 468.6254  P = 1.500000E+06  V =  0.00000      BETA = 0.889226      Q =  0.00000    
      KODE = 3  NTRIAL =   2  T = 468.6254  P = 1.500000E+06  V =  0.00000      BETA = 0.868097      Q =  0.00000    
      KODE = 3  NTRIAL =   2  T = 468.6254  P = 1.500000E+06  V =  0.00000      BETA = 0.846969      Q =  0.00000    
      KODE = 3  NTRIAL =   2  T = 468.6254  P = 1.500000E+06  V =  0.00000      BETA = 0.825840      Q =  0.00000    
      KODE = 3  NTRIAL =   2  T = 468.6254  P = 1.500000E+06  V =  0.00000      BETA = 0.804711      Q =  0.00000    
      KODE = 3  NTRIAL =   2  T = 468.6254  P = 1.500000E+06  V =  0.00000      BETA = 0.783583      Q =  0.00000    
      KODE = 3  NTRIAL =   2  T = 468.6254  P = 1.500000E+06  V =  0.00000      BETA = 0.762454      Q =  0.00000    
      KODE = 3  NTRIAL =   2  T = 468.6254  P = 1.500000E+06  V =  0.00000      BETA = 0.741325      Q =  0.00000    
      KODE = 3  NTRIAL =   2  T = 468.6254  P = 1.500000E+06  V =  0.00000      BETA = 0.720197      Q =  0.00000    
      KODE = 3  NTRIAL =   2  T = 468.6254  P = 1.500000E+06  V =  0.00000      BETA = 0.699068      Q =  0.00000    
      KODE = 3  NTRIAL =   2  T = 468.6254  P = 1.500000E+06  V =  0.00000      BETA = 0.677939      Q =  0.00000    
      KODE = 3  NTRIAL =   2  T = 468.6254  P = 1.500000E+06  V =  0.00000      BETA = 0.656811      Q =  0.00000    
      KODE = 3  NTRIAL =   2  T = 468.6254  P = 1.500000E+06  V =  0.00000      BETA = 0.635682      Q =  0.00000    
      KODE = 3  NTRIAL =   2  T = 468.6254  P = 1.500000E+06  V =  0.00000      BETA = 0.614553      Q =  0.00000    
      KODE = 3  NTRIAL =   2  T = 468.6254  P = 1.500000E+06  V =  0.00000      BETA = 0.593424      Q =  0.00000    
      KODE = 3  NTRIAL =   2  T = 468.6254  P = 1.500000E+06  V =  0.00000      BETA = 0.572296      Q =  0.00000    
      KODE = 3  NTRIAL =   2  T = 468.6254  P = 1.500000E+06  V =  0.00000      BETA = 0.551167      Q =  0.00000    
      KODE = 3  NTRIAL =   2  T = 468.6254  P = 1.500000E+06  V =  0.00000      BETA = 0.530038      Q =  0.00000    
      KODE = 3  NTRIAL =   2  T = 468.6254  P = 1.500000E+06  V =  0.00000      BETA = 0.508910      Q =  0.00000    
      KODE = 3  NTRIAL =   2  T = 468.6254  P = 1.500000E+06  V =  0.00000      BETA = 0.487781      Q =  0.00000    
      KODE = 3  NTRIAL =   2  T = 468.6254  P = 1.500000E+06  V =  0.00000      BETA = 0.466652      Q =  0.00000    
      KODE = 3  NTRIAL =   2  T = 468.6254  P = 1.500000E+06  V =  0.00000      BETA = 0.445524      Q =  0.00000    
      KODE = 3  NTRIAL =   2  T = 468.6254  P = 1.500000E+06  V =  0.00000      BETA = 0.424395      Q =  0.00000    
      KODE = 3  NTRIAL =   2  T = 468.6254  P = 1.500000E+06  V =  0.00000      BETA = 0.403266      Q =  0.00000    
      KODE = 3  NTRIAL =   2  T = 468.6254  P = 1.500000E+06  V =  0.00000      BETA = 0.382138      Q =  0.00000    
      KODE = 3  NTRIAL =   2  T = 468.6254  P = 1.500000E+06  V =  0.00000      BETA = 0.361009      Q =  0.00000    
      KODE = 3  NTRIAL =   2  T = 468.6254  P = 1.500000E+06  V =  0.00000      BETA = 0.339880      Q =  0.00000    
      KODE = 3  NTRIAL =   2  T = 468.6254  P = 1.500000E+06  V =  0.00000      BETA = 0.318752      Q =  0.00000    
      KODE = 3  NTRIAL =   2  T = 468.6254  P = 1.500000E+06  V =  0.00000      BETA = 0.297623      Q =  0.00000    
      KODE = 3  NTRIAL =   2  T = 468.6254  P = 1.500000E+06  V =  0.00000      BETA = 0.276494      Q =  0.00000    
      KODE = 3  NTRIAL =   2  T = 468.6254  P = 1.500000E+06  V =  0.00000      BETA = 0.255366      Q =  0.00000    
      KODE = 3  NTRIAL =   2  T = 468.6254  P = 1.500000E+06  V =  0.00000      BETA = 0.234237      Q =  0.00000    
      KODE = 3  NTRIAL =   2  T = 468.6254  P = 1.500000E+06  V =  0.00000      BETA = 0.213108      Q =  0.00000    
      KODE = 3  NTRIAL =   2  T = 468.6254  P = 1.500000E+06  V =  0.00000      BETA = 0.191980      Q =  0.00000    
      KODE = 3  NTRIAL =   2  T = 468.6254  P = 1.500000E+06  V =  0.00000      BETA = 0.170851      Q =  0.00000    
      KODE = 3  NTRIAL =   2  T = 468.6254  P = 1.500000E+06  V =  0.00000      BETA = 0.149722      Q =  0.00000    
      KODE = 3  NTRIAL =   2  T = 468.6254  P = 1.500000E+06  V =  0.00000      BETA = 0.128594      Q =  0.00000    
      KODE = 3  NTRIAL =   2  T = 468.6254  P = 1.500000E+06  V =  0.00000      BETA = 0.107465      Q =  0.00000    
      KODE = 3  NTRIAL =   2  T = 468.6254  P = 1.500000E+06  V =  0.00000      BETA = 8.633616E-02  Q =  0.00000    
      KODE = 3  NTRIAL =   2  T = 468.6254  P = 1.500000E+06  V =  0.00000      BETA = 6.520748E-02  Q =  0.00000    
      KODE = 3  NTRIAL =   2  T = 468.6254  P = 1.500000E+06  V =  0.00000      BETA = 4.407880E-02  Q =  0.00000    
      KODE = 3  NTRIAL =   2  T = 468.6254  P = 1.500000E+06  V =  0.00000      BETA = 2.295012E-02  Q =  0.00000    
      KODE = 3  NTRIAL =   2  T = 468.6254  P = 1.500000E+06  V =  0.00000      BETA = 1.821443E-03  Q =  0.00000    
      KODE = 3  NTRIAL =  17  T = 469.0753  P = 1.500000E+06  V =  0.00000      BETA =  1.00000      Q =  0.00000    
      KODE = 3  NTRIAL =   7  T = 469.9623  P = 1.500000E+06  V =  0.00000      BETA =  1.00000      Q =  0.00000    
      KODE = 3  NTRIAL =   4  T = 471.5536  P = 1.500000E+06  V =  0.00000      BETA =  1.00000      Q =  0.00000    

 Results generated                                                                Time =    289.13


*** INPUT SPECIFICATION MESSAGES ***

 CHANGES WERE MADE TO BLOCK        S101     03/25/2026   17:56:07:09 
 BLOCK S101 FLASH2
     PARAM TEMP=100. PRES=0. <MPa> NPHASE=3
     BLOCK-OPTION FREE-WATER=NO

 DISABLE      IS  NEW 03/25/2026   17:56:07:09 
 DISABLE
     SENSITIVITY RSIZE-1

 PDF updated                                                                      TIME =    307.15
 THIS COPY OF ASPEN PLUS LICENSED TO UNIVERSITY OF BRITISH CO        
 
 SENSITIVITY BLOCK: RSIZE-1 WILL BE INTERPRETED 
 


Calculations begin                                                              time    307.28


      UOS BLOCK S101     MODEL: FLASH2                                            TIME =    307.29
      KODE = 2  NTRIAL =  11  T = 373.1500  P = 1.500000E+06  V = 0.438332      BETA = 0.549852      Q =-8.518771E+06

 Report Writer entered                                                            Time =    307.32

      BEGIN CALCULATIONS FOR PROP-TABLE BINRY-1                                   TIME =    307.38
      KODE = 3  NTRIAL =   8  T = 596.3156  P = 1.500000E+06  V =  0.00000      BETA =  1.00000      Q =  0.00000    
      KODE = 3  NTRIAL =  11  T = 584.8493  P = 1.500000E+06  V =  0.00000      BETA =  1.00000      Q =  0.00000    
      KODE = 3  NTRIAL =  11  T = 574.2191  P = 1.500000E+06  V =  0.00000      BETA =  1.00000      Q =  0.00000    
      KODE = 3  NTRIAL =  11  T = 564.5782  P = 1.500000E+06  V =  0.00000      BETA =  1.00000      Q =  0.00000    
      KODE = 3  NTRIAL =  11  T = 555.9453  P = 1.500000E+06  V =  0.00000      BETA =  1.00000      Q =  0.00000    
      KODE = 3  NTRIAL =  11  T = 548.2589  P = 1.500000E+06  V =  0.00000      BETA =  1.00000      Q =  0.00000    
      KODE = 3  NTRIAL =  11  T = 541.4223  P = 1.500000E+06  V =  0.00000      BETA =  1.00000      Q =  0.00000    
      KODE = 3  NTRIAL =  11  T = 535.3309  P = 1.500000E+06  V =  0.00000      BETA =  1.00000      Q =  0.00000    
      KODE = 3  NTRIAL =  11  T = 529.8854  P = 1.500000E+06  V =  0.00000      BETA =  1.00000      Q =  0.00000    
      KODE = 3  NTRIAL =  11  T = 524.9978  P = 1.500000E+06  V =  0.00000      BETA =  1.00000      Q =  0.00000    
      KODE = 3  NTRIAL =  11  T = 520.5922  P = 1.500000E+06  V =  0.00000      BETA =  1.00000      Q =  0.00000    
      KODE = 3  NTRIAL =  11  T = 516.6040  P = 1.500000E+06  V =  0.00000      BETA =  1.00000      Q =  0.00000    
      KODE = 3  NTRIAL =  11  T = 512.9791  P = 1.500000E+06  V =  0.00000      BETA =  1.00000      Q =  0.00000    
      KODE = 3  NTRIAL =  10  T = 509.6717  P = 1.500000E+06  V =  0.00000      BETA =  1.00000      Q =  0.00000    
      KODE = 3  NTRIAL =  10  T = 506.6433  P = 1.500000E+06  V =  0.00000      BETA =  1.00000      Q =  0.00000    
      KODE = 3  NTRIAL =  10  T = 503.8613  P = 1.500000E+06  V =  0.00000      BETA =  1.00000      Q =  0.00000    
      KODE = 3  NTRIAL =   9  T = 501.2981  P = 1.500000E+06  V =  0.00000      BETA =  1.00000      Q =  0.00000    
      KODE = 3  NTRIAL =   9  T = 498.9301  P = 1.500000E+06  V =  0.00000      BETA =  1.00000      Q =  0.00000    
      KODE = 3  NTRIAL =   9  T = 496.7370  P = 1.500000E+06  V =  0.00000      BETA =  1.00000      Q =  0.00000    
      KODE = 3  NTRIAL =   9  T = 494.7014  P = 1.500000E+06  V =  0.00000      BETA =  1.00000      Q =  0.00000    
      KODE = 3  NTRIAL =   9  T = 492.8082  P = 1.500000E+06  V =  0.00000      BETA =  1.00000      Q =  0.00000    
      KODE = 3  NTRIAL =   9  T = 491.0443  P = 1.500000E+06  V =  0.00000      BETA =  1.00000      Q =  0.00000    
      KODE = 3  NTRIAL =   9  T = 489.3981  P = 1.500000E+06  V =  0.00000      BETA =  1.00000      Q =  0.00000    
      KODE = 3  NTRIAL =   9  T = 487.8596  P = 1.500000E+06  V =  0.00000      BETA =  1.00000      Q =  0.00000    
      KODE = 3  NTRIAL =   9  T = 486.4199  P = 1.500000E+06  V =  0.00000      BETA =  1.00000      Q =  0.00000    
      KODE = 3  NTRIAL =   9  T = 485.0711  P = 1.500000E+06  V =  0.00000      BETA =  1.00000      Q =  0.00000    
      KODE = 3  NTRIAL =   9  T = 483.8062  P = 1.500000E+06  V =  0.00000      BETA =  1.00000      Q =  0.00000    
      KODE = 3  NTRIAL =   9  T = 482.6190  P = 1.500000E+06  V =  0.00000      BETA =  1.00000      Q =  0.00000    
      KODE = 3  NTRIAL =   9  T = 481.5039  P = 1.500000E+06  V =  0.00000      BETA =  1.00000      Q =  0.00000    
      KODE = 3  NTRIAL =   9  T = 480.4558  P = 1.500000E+06  V =  0.00000      BETA =  1.00000      Q =  0.00000    
      KODE = 3  NTRIAL =   9  T = 479.4703  P = 1.500000E+06  V =  0.00000      BETA =  1.00000      Q =  0.00000    
      KODE = 3  NTRIAL =   9  T = 478.5433  P = 1.500000E+06  V =  0.00000      BETA =  1.00000      Q =  0.00000    
      KODE = 3  NTRIAL =   9  T = 477.6710  P = 1.500000E+06  V =  0.00000      BETA =  1.00000      Q =  0.00000    
      KODE = 3  NTRIAL =   9  T = 476.8501  P = 1.500000E+06  V =  0.00000      BETA =  1.00000      Q =  0.00000    
      KODE = 3  NTRIAL =   9  T = 476.0776  P = 1.500000E+06  V =  0.00000      BETA =  1.00000      Q =  0.00000    
      KODE = 3  NTRIAL =   9  T = 475.3506  P = 1.500000E+06  V =  0.00000      BETA =  1.00000      Q =  0.00000    
      KODE = 3  NTRIAL =   9  T = 474.6666  P = 1.500000E+06  V =  0.00000      BETA =  1.00000      Q =  0.00000    
      KODE = 3  NTRIAL =  28  T = 474.0232  P = 1.500000E+06  V =  0.00000      BETA =  1.00000      Q =  0.00000    
      KODE = 3  NTRIAL =  28  T = 473.4183  P = 1.500000E+06  V =  0.00000      BETA =  1.00000      Q =  0.00000    
      KODE = 3  NTRIAL =  12  T = 472.8499  P = 1.500000E+06  V =  0.00000      BETA =  1.00000      Q =  0.00000    
      KODE = 3  NTRIAL =  11  T = 472.3161  P = 1.500000E+06  V =  0.00000      BETA =  1.00000      Q =  0.00000    
      KODE = 3  NTRIAL =  11  T = 471.8153  P = 1.500000E+06  V =  0.00000      BETA =  1.00000      Q =  0.00000    
      KODE = 3  NTRIAL =  11  T = 471.3459  P = 1.500000E+06  V =  0.00000      BETA =  1.00000      Q =  0.00000    
      KODE = 3  NTRIAL =  11  T = 470.9063  P = 1.500000E+06  V =  0.00000      BETA =  1.00000      Q =  0.00000    
      KODE = 3  NTRIAL =  11  T = 470.4954  P = 1.500000E+06  V =  0.00000      BETA =  1.00000      Q =  0.00000    
      KODE = 3  NTRIAL =  11  T = 470.1117  P = 1.500000E+06  V =  0.00000      BETA =  1.00000      Q =  0.00000    
      KODE = 3  NTRIAL =  11  T = 469.7540  P = 1.500000E+06  V =  0.00000      BETA =  1.00000      Q =  0.00000    
      KODE = 3  NTRIAL =  11  T = 469.4214  P = 1.500000E+06  V =  0.00000      BETA =  1.00000      Q =  0.00000    
      KODE = 3  NTRIAL =  12  T = 469.1127  P = 1.500000E+06  V =  0.00000      BETA =  1.00000      Q =  0.00000    
      KODE = 3  NTRIAL =  13  T = 468.8270  P = 1.500000E+06  V =  0.00000      BETA =  1.00000      Q =  0.00000    
      KODE = 3  NTRIAL =  15  T = 468.6254  P = 1.500000E+06  V =  0.00000      BETA = 0.994869      Q =  0.00000    
      KODE = 3  NTRIAL =   2  T = 468.6254  P = 1.500000E+06  V =  0.00000      BETA = 0.973741      Q =  0.00000    
      KODE = 3  NTRIAL =   2  T = 468.6254  P = 1.500000E+06  V =  0.00000      BETA = 0.952612      Q =  0.00000    
      KODE = 3  NTRIAL =   2  T = 468.6254  P = 1.500000E+06  V =  0.00000      BETA = 0.931483      Q =  0.00000    
      KODE = 3  NTRIAL =   2  T = 468.6254  P = 1.500000E+06  V =  0.00000      BETA = 0.910355      Q =  0.00000    
      KODE = 3  NTRIAL =   2  T = 468.6254  P = 1.500000E+06  V =  0.00000      BETA = 0.889226      Q =  0.00000    
      KODE = 3  NTRIAL =   2  T = 468.6254  P = 1.500000E+06  V =  0.00000      BETA = 0.868097      Q =  0.00000    
      KODE = 3  NTRIAL =   2  T = 468.6254  P = 1.500000E+06  V =  0.00000      BETA = 0.846969      Q =  0.00000    
      KODE = 3  NTRIAL =   2  T = 468.6254  P = 1.500000E+06  V =  0.00000      BETA = 0.825840      Q =  0.00000    
      KODE = 3  NTRIAL =   2  T = 468.6254  P = 1.500000E+06  V =  0.00000      BETA = 0.804711      Q =  0.00000    
      KODE = 3  NTRIAL =   2  T = 468.6254  P = 1.500000E+06  V =  0.00000      BETA = 0.783583      Q =  0.00000    
      KODE = 3  NTRIAL =   2  T = 468.6254  P = 1.500000E+06  V =  0.00000      BETA = 0.762454      Q =  0.00000    
      KODE = 3  NTRIAL =   2  T = 468.6254  P = 1.500000E+06  V =  0.00000      BETA = 0.741325      Q =  0.00000    
      KODE = 3  NTRIAL =   2  T = 468.6254  P = 1.500000E+06  V =  0.00000      BETA = 0.720197      Q =  0.00000    
      KODE = 3  NTRIAL =   2  T = 468.6254  P = 1.500000E+06  V =  0.00000      BETA = 0.699068      Q =  0.00000    
      KODE = 3  NTRIAL =   2  T = 468.6254  P = 1.500000E+06  V =  0.00000      BETA = 0.677939      Q =  0.00000    
      KODE = 3  NTRIAL =   2  T = 468.6254  P = 1.500000E+06  V =  0.00000      BETA = 0.656811      Q =  0.00000    
      KODE = 3  NTRIAL =   2  T = 468.6254  P = 1.500000E+06  V =  0.00000      BETA = 0.635682      Q =  0.00000    
      KODE = 3  NTRIAL =   2  T = 468.6254  P = 1.500000E+06  V =  0.00000      BETA = 0.614553      Q =  0.00000    
      KODE = 3  NTRIAL =   2  T = 468.6254  P = 1.500000E+06  V =  0.00000      BETA = 0.593424      Q =  0.00000    
      KODE = 3  NTRIAL =   2  T = 468.6254  P = 1.500000E+06  V =  0.00000      BETA = 0.572296      Q =  0.00000    
      KODE = 3  NTRIAL =   2  T = 468.6254  P = 1.500000E+06  V =  0.00000      BETA = 0.551167      Q =  0.00000    
      KODE = 3  NTRIAL =   2  T = 468.6254  P = 1.500000E+06  V =  0.00000      BETA = 0.530038      Q =  0.00000    
      KODE = 3  NTRIAL =   2  T = 468.6254  P = 1.500000E+06  V =  0.00000      BETA = 0.508910      Q =  0.00000    
      KODE = 3  NTRIAL =   2  T = 468.6254  P = 1.500000E+06  V =  0.00000      BETA = 0.487781      Q =  0.00000    
      KODE = 3  NTRIAL =   2  T = 468.6254  P = 1.500000E+06  V =  0.00000      BETA = 0.466652      Q =  0.00000    
      KODE = 3  NTRIAL =   2  T = 468.6254  P = 1.500000E+06  V =  0.00000      BETA = 0.445524      Q =  0.00000    
      KODE = 3  NTRIAL =   2  T = 468.6254  P = 1.500000E+06  V =  0.00000      BETA = 0.424395      Q =  0.00000    
      KODE = 3  NTRIAL =   2  T = 468.6254  P = 1.500000E+06  V =  0.00000      BETA = 0.403266      Q =  0.00000    
      KODE = 3  NTRIAL =   2  T = 468.6254  P = 1.500000E+06  V =  0.00000      BETA = 0.382138      Q =  0.00000    
      KODE = 3  NTRIAL =   2  T = 468.6254  P = 1.500000E+06  V =  0.00000      BETA = 0.361009      Q =  0.00000    
      KODE = 3  NTRIAL =   2  T = 468.6254  P = 1.500000E+06  V =  0.00000      BETA = 0.339880      Q =  0.00000    
      KODE = 3  NTRIAL =   2  T = 468.6254  P = 1.500000E+06  V =  0.00000      BETA = 0.318752      Q =  0.00000    
      KODE = 3  NTRIAL =   2  T = 468.6254  P = 1.500000E+06  V =  0.00000      BETA = 0.297623      Q =  0.00000    
      KODE = 3  NTRIAL =   2  T = 468.6254  P = 1.500000E+06  V =  0.00000      BETA = 0.276494      Q =  0.00000    
      KODE = 3  NTRIAL =   2  T = 468.6254  P = 1.500000E+06  V =  0.00000      BETA = 0.255366      Q =  0.00000    
      KODE = 3  NTRIAL =   2  T = 468.6254  P = 1.500000E+06  V =  0.00000      BETA = 0.234237      Q =  0.00000    
      KODE = 3  NTRIAL =   2  T = 468.6254  P = 1.500000E+06  V =  0.00000      BETA = 0.213108      Q =  0.00000    
      KODE = 3  NTRIAL =   2  T = 468.6254  P = 1.500000E+06  V =  0.00000      BETA = 0.191980      Q =  0.00000    
      KODE = 3  NTRIAL =   2  T = 468.6254  P = 1.500000E+06  V =  0.00000      BETA = 0.170851      Q =  0.00000    
      KODE = 3  NTRIAL =   2  T = 468.6254  P = 1.500000E+06  V =  0.00000      BETA = 0.149722      Q =  0.00000    
      KODE = 3  NTRIAL =   2  T = 468.6254  P = 1.500000E+06  V =  0.00000      BETA = 0.128594      Q =  0.00000    
      KODE = 3  NTRIAL =   2  T = 468.6254  P = 1.500000E+06  V =  0.00000      BETA = 0.107465      Q =  0.00000    
      KODE = 3  NTRIAL =   2  T = 468.6254  P = 1.500000E+06  V =  0.00000      BETA = 8.633616E-02  Q =  0.00000    
      KODE = 3  NTRIAL =   2  T = 468.6254  P = 1.500000E+06  V =  0.00000      BETA = 6.520748E-02  Q =  0.00000    
      KODE = 3  NTRIAL =   2  T = 468.6254  P = 1.500000E+06  V =  0.00000      BETA = 4.407880E-02  Q =  0.00000    
      KODE = 3  NTRIAL =   2  T = 468.6254  P = 1.500000E+06  V =  0.00000      BETA = 2.295012E-02  Q =  0.00000    
      KODE = 3  NTRIAL =   2  T = 468.6254  P = 1.500000E+06  V =  0.00000      BETA = 1.821443E-03  Q =  0.00000    
      KODE = 3  NTRIAL =  17  T = 469.0753  P = 1.500000E+06  V =  0.00000      BETA =  1.00000      Q =  0.00000    
      KODE = 3  NTRIAL =   7  T = 469.9623  P = 1.500000E+06  V =  0.00000      BETA =  1.00000      Q =  0.00000    
      KODE = 3  NTRIAL =   4  T = 471.5536  P = 1.500000E+06  V =  0.00000      BETA =  1.00000      Q =  0.00000    

 Results generated                                                                Time =    307.51


*** INPUT SPECIFICATION MESSAGES ***

 CHANGES WERE MADE TO BLOCK        S101     03/25/2026   17:56:32:99 
 BLOCK S101 FLASH2
     PARAM TEMP=195. PRES=0. <MPa> NPHASE=3
     BLOCK-OPTION FREE-WATER=NO

 DISABLE      IS  NEW 03/25/2026   17:56:32:99 
 DISABLE
     SENSITIVITY RSIZE-1

 PDF updated                                                                      TIME =    332.49
 THIS COPY OF ASPEN PLUS LICENSED TO UNIVERSITY OF BRITISH CO        
 
 SENSITIVITY BLOCK: RSIZE-1 WILL BE INTERPRETED 
 


Calculations begin                                                              time    332.64


      UOS BLOCK S101     MODEL: FLASH2                                            TIME =    332.64
      KODE = 2  NTRIAL =  11  T = 468.1500  P = 1.500000E+06  V = 0.859361      BETA =  1.00000      Q =-3.401287E+06

 Report Writer entered                                                            Time =    332.67

      BEGIN CALCULATIONS FOR PROP-TABLE BINRY-1                                   TIME =    332.78
      KODE = 3  NTRIAL =   8  T = 596.3156  P = 1.500000E+06  V =  0.00000      BETA =  1.00000      Q =  0.00000    
      KODE = 3  NTRIAL =  11  T = 584.8493  P = 1.500000E+06  V =  0.00000      BETA =  1.00000      Q =  0.00000    
      KODE = 3  NTRIAL =  11  T = 574.2191  P = 1.500000E+06  V =  0.00000      BETA =  1.00000      Q =  0.00000    
      KODE = 3  NTRIAL =  11  T = 564.5782  P = 1.500000E+06  V =  0.00000      BETA =  1.00000      Q =  0.00000    
      KODE = 3  NTRIAL =  11  T = 555.9453  P = 1.500000E+06  V =  0.00000      BETA =  1.00000      Q =  0.00000    
      KODE = 3  NTRIAL =  11  T = 548.2589  P = 1.500000E+06  V =  0.00000      BETA =  1.00000      Q =  0.00000    
      KODE = 3  NTRIAL =  11  T = 541.4223  P = 1.500000E+06  V =  0.00000      BETA =  1.00000      Q =  0.00000    
      KODE = 3  NTRIAL =  11  T = 535.3309  P = 1.500000E+06  V =  0.00000      BETA =  1.00000      Q =  0.00000    
      KODE = 3  NTRIAL =  11  T = 529.8854  P = 1.500000E+06  V =  0.00000      BETA =  1.00000      Q =  0.00000    
      KODE = 3  NTRIAL =  11  T = 524.9978  P = 1.500000E+06  V =  0.00000      BETA =  1.00000      Q =  0.00000    
      KODE = 3  NTRIAL =  11  T = 520.5922  P = 1.500000E+06  V =  0.00000      BETA =  1.00000      Q =  0.00000    
      KODE = 3  NTRIAL =  11  T = 516.6040  P = 1.500000E+06  V =  0.00000      BETA =  1.00000      Q =  0.00000    
      KODE = 3  NTRIAL =  11  T = 512.9791  P = 1.500000E+06  V =  0.00000      BETA =  1.00000      Q =  0.00000    
      KODE = 3  NTRIAL =  10  T = 509.6717  P = 1.500000E+06  V =  0.00000      BETA =  1.00000      Q =  0.00000    
      KODE = 3  NTRIAL =  10  T = 506.6433  P = 1.500000E+06  V =  0.00000      BETA =  1.00000      Q =  0.00000    
      KODE = 3  NTRIAL =  10  T = 503.8613  P = 1.500000E+06  V =  0.00000      BETA =  1.00000      Q =  0.00000    
      KODE = 3  NTRIAL =   9  T = 501.2981  P = 1.500000E+06  V =  0.00000      BETA =  1.00000      Q =  0.00000    
      KODE = 3  NTRIAL =   9  T = 498.9301  P = 1.500000E+06  V =  0.00000      BETA =  1.00000      Q =  0.00000    
      KODE = 3  NTRIAL =   9  T = 496.7370  P = 1.500000E+06  V =  0.00000      BETA =  1.00000      Q =  0.00000    
      KODE = 3  NTRIAL =   9  T = 494.7014  P = 1.500000E+06  V =  0.00000      BETA =  1.00000      Q =  0.00000    
      KODE = 3  NTRIAL =   9  T = 492.8082  P = 1.500000E+06  V =  0.00000      BETA =  1.00000      Q =  0.00000    
      KODE = 3  NTRIAL =   9  T = 491.0443  P = 1.500000E+06  V =  0.00000      BETA =  1.00000      Q =  0.00000    
      KODE = 3  NTRIAL =   9  T = 489.3981  P = 1.500000E+06  V =  0.00000      BETA =  1.00000      Q =  0.00000    
      KODE = 3  NTRIAL =   9  T = 487.8596  P = 1.500000E+06  V =  0.00000      BETA =  1.00000      Q =  0.00000    
      KODE = 3  NTRIAL =   9  T = 486.4199  P = 1.500000E+06  V =  0.00000      BETA =  1.00000      Q =  0.00000    
      KODE = 3  NTRIAL =   9  T = 485.0711  P = 1.500000E+06  V =  0.00000      BETA =  1.00000      Q =  0.00000    
      KODE = 3  NTRIAL =   9  T = 483.8062  P = 1.500000E+06  V =  0.00000      BETA =  1.00000      Q =  0.00000    
      KODE = 3  NTRIAL =   9  T = 482.6190  P = 1.500000E+06  V =  0.00000      BETA =  1.00000      Q =  0.00000    
      KODE = 3  NTRIAL =   9  T = 481.5039  P = 1.500000E+06  V =  0.00000      BETA =  1.00000      Q =  0.00000    
      KODE = 3  NTRIAL =   9  T = 480.4558  P = 1.500000E+06  V =  0.00000      BETA =  1.00000      Q =  0.00000    
      KODE = 3  NTRIAL =   9  T = 479.4703  P = 1.500000E+06  V =  0.00000      BETA =  1.00000      Q =  0.00000    
      KODE = 3  NTRIAL =   9  T = 478.5433  P = 1.500000E+06  V =  0.00000      BETA =  1.00000      Q =  0.00000    
      KODE = 3  NTRIAL =   9  T = 477.6710  P = 1.500000E+06  V =  0.00000      BETA =  1.00000      Q =  0.00000    
      KODE = 3  NTRIAL =   9  T = 476.8501  P = 1.500000E+06  V =  0.00000      BETA =  1.00000      Q =  0.00000    
      KODE = 3  NTRIAL =   9  T = 476.0776  P = 1.500000E+06  V =  0.00000      BETA =  1.00000      Q =  0.00000    
      KODE = 3  NTRIAL =   9  T = 475.3506  P = 1.500000E+06  V =  0.00000      BETA =  1.00000      Q =  0.00000    
      KODE = 3  NTRIAL =   9  T = 474.6666  P = 1.500000E+06  V =  0.00000      BETA =  1.00000      Q =  0.00000    
      KODE = 3  NTRIAL =  28  T = 474.0232  P = 1.500000E+06  V =  0.00000      BETA =  1.00000      Q =  0.00000    
[...]

 SENSITIVITY BLOCK S101-T   ROW    81 EVALUATION BEGINS                           TIME =    865.94
      VARY VARIABLES:   555.98    

      UOS BLOCK S101     MODEL: FLASH2                                            TIME =    865.94
      KODE = 2  NTRIAL =   5  T = 555.9783  P = 1.500000E+06  V =  1.00000      BETA =  1.00000      Q = -962618.    

 SENSITIVITY BLOCK S101-T   ROW    82 EVALUATION BEGINS                           TIME =    865.94
      VARY VARIABLES:   559.51    

      UOS BLOCK S101     MODEL: FLASH2                                            TIME =    865.94
      KODE = 2  NTRIAL =   5  T = 559.5136  P = 1.500000E+06  V =  1.00000      BETA =  1.00000      Q = -912840.    

 SENSITIVITY BLOCK S101-T   ROW    83 EVALUATION BEGINS                           TIME =    865.94
      VARY VARIABLES:   563.05    

      UOS BLOCK S101     MODEL: FLASH2                                            TIME =    865.95
      KODE = 2  NTRIAL =   5  T = 563.0490  P = 1.500000E+06  V =  1.00000      BETA =  1.00000      Q = -862961.    

 SENSITIVITY BLOCK S101-T   ROW    84 EVALUATION BEGINS                           TIME =    865.95
      VARY VARIABLES:   566.58    

      UOS BLOCK S101     MODEL: FLASH2                                            TIME =    865.95
      KODE = 2  NTRIAL =   5  T = 566.5843  P = 1.500000E+06  V =  1.00000      BETA =  1.00000      Q = -812983.    

 SENSITIVITY BLOCK S101-T   ROW    85 EVALUATION BEGINS                           TIME =    865.95
      VARY VARIABLES:   570.12    

      UOS BLOCK S101     MODEL: FLASH2                                            TIME =    865.95
      KODE = 2  NTRIAL =   5  T = 570.1197  P = 1.500000E+06  V =  1.00000      BETA =  1.00000      Q = -762905.    

 SENSITIVITY BLOCK S101-T   ROW    86 EVALUATION BEGINS                           TIME =    865.96
      VARY VARIABLES:   573.66    

      UOS BLOCK S101     MODEL: FLASH2                                            TIME =    865.96
      KODE = 2  NTRIAL =   5  T = 573.6551  P = 1.500000E+06  V =  1.00000      BETA =  1.00000      Q = -712727.    

 SENSITIVITY BLOCK S101-T   ROW    87 EVALUATION BEGINS                           TIME =    865.96
      VARY VARIABLES:   577.19    

      UOS BLOCK S101     MODEL: FLASH2                                            TIME =    865.96
      KODE = 2  NTRIAL =   5  T = 577.1904  P = 1.500000E+06  V =  1.00000      BETA =  1.00000      Q = -662450.    

 SENSITIVITY BLOCK S101-T   ROW    88 EVALUATION BEGINS                           TIME =    865.96
      VARY VARIABLES:   580.73    

      UOS BLOCK S101     MODEL: FLASH2                                            TIME =    865.96
      KODE = 2  NTRIAL =   5  T = 580.7258  P = 1.500000E+06  V =  1.00000      BETA =  1.00000      Q = -612074.    

 SENSITIVITY BLOCK S101-T   ROW    89 EVALUATION BEGINS                           TIME =    865.96
      VARY VARIABLES:   584.26    

      UOS BLOCK S101     MODEL: FLASH2                                            TIME =    865.96
      KODE = 2  NTRIAL =   5  T = 584.2611  P = 1.500000E+06  V =  1.00000      BETA =  1.00000      Q = -561600.    

 SENSITIVITY BLOCK S101-T   ROW    90 EVALUATION BEGINS                           TIME =    865.96
      VARY VARIABLES:   587.80    

      UOS BLOCK S101     MODEL: FLASH2                                            TIME =    865.96
      KODE = 2  NTRIAL =   5  T = 587.7965  P = 1.500000E+06  V =  1.00000      BETA =  1.00000      Q = -511028.    

 SENSITIVITY BLOCK S101-T   ROW    91 EVALUATION BEGINS                           TIME =    865.97
      VARY VARIABLES:   591.33    

      UOS BLOCK S101     MODEL: FLASH2                                            TIME =    865.97
      KODE = 2  NTRIAL =   5  T = 591.3318  P = 1.500000E+06  V =  1.00000      BETA =  1.00000      Q = -460359.    

 SENSITIVITY BLOCK S101-T   ROW    92 EVALUATION BEGINS                           TIME =    865.97
      VARY VARIABLES:   594.87    

      UOS BLOCK S101     MODEL: FLASH2                                            TIME =    865.97
      KODE = 2  NTRIAL =   5  T = 594.8672  P = 1.500000E+06  V =  1.00000      BETA =  1.00000      Q = -409592.    

 SENSITIVITY BLOCK S101-T   ROW    93 EVALUATION BEGINS                           TIME =    865.97
      VARY VARIABLES:   598.40    

      UOS BLOCK S101     MODEL: FLASH2                                            TIME =    865.97
      KODE = 2  NTRIAL =   5  T = 598.4025  P = 1.500000E+06  V =  1.00000      BETA =  1.00000      Q = -358729.    

 SENSITIVITY BLOCK S101-T   ROW    94 EVALUATION BEGINS                           TIME =    865.98
      VARY VARIABLES:   601.94    

      UOS BLOCK S101     MODEL: FLASH2                                            TIME =    865.98
      KODE = 2  NTRIAL =   5  T = 601.9379  P = 1.500000E+06  V =  1.00000      BETA =  1.00000      Q = -307768.    

 SENSITIVITY BLOCK S101-T   ROW    95 EVALUATION BEGINS                           TIME =    865.98
      VARY VARIABLES:   605.47    

      UOS BLOCK S101     MODEL: FLASH2                                            TIME =    865.98
      KODE = 2  NTRIAL =   5  T = 605.4732  P = 1.500000E+06  V =  1.00000      BETA =  1.00000      Q = -256712.    

 SENSITIVITY BLOCK S101-T   ROW    96 EVALUATION BEGINS                           TIME =    865.98
      VARY VARIABLES:   609.01    

      UOS BLOCK S101     MODEL: FLASH2                                            TIME =    865.98
      KODE = 2  NTRIAL =   5  T = 609.0086  P = 1.500000E+06  V =  1.00000      BETA =  1.00000      Q = -205560.    

 SENSITIVITY BLOCK S101-T   ROW    97 EVALUATION BEGINS                           TIME =    865.99
      VARY VARIABLES:   612.54    

      UOS BLOCK S101     MODEL: FLASH2                                            TIME =    865.99
      KODE = 2  NTRIAL =   5  T = 612.5439  P = 1.500000E+06  V =  1.00000      BETA =  1.00000      Q = -154312.    

 SENSITIVITY BLOCK S101-T   ROW    98 EVALUATION BEGINS                           TIME =    865.99
      VARY VARIABLES:   616.08    

      UOS BLOCK S101     MODEL: FLASH2                                            TIME =    865.99
      KODE = 2  NTRIAL =   5  T = 616.0793  P = 1.500000E+06  V =  1.00000      BETA =  1.00000      Q = -102970.    

 SENSITIVITY BLOCK S101-T   ROW    99 EVALUATION BEGINS                           TIME =    865.99
      VARY VARIABLES:   619.61    

      UOS BLOCK S101     MODEL: FLASH2                                            TIME =    865.99
      KODE = 2  NTRIAL =   5  T = 619.6146  P = 1.500000E+06  V =  1.00000      BETA =  1.00000      Q = -51532.0    

 SENSITIVITY BLOCK S101-T   ROW   100 EVALUATION BEGINS                           TIME =    865.99
      VARY VARIABLES:   623.15    

      UOS BLOCK S101     MODEL: FLASH2                                            TIME =    865.99
      KODE = 2  NTRIAL =   5  T = 623.1500  P = 1.500000E+06  V =  1.00000      BETA =  1.00000      Q =  0.00000    

 SENSITIVITY BLOCK S101-T   ROW   101 (BASE CASE) EVALUATION BEGINS               TIME =    865.99

    SET IFINAL TO   1
      VARY VARIABLES:   468.15    

      UOS BLOCK S101     MODEL: FLASH2                                            TIME =    866.00
      KODE = 2  NTRIAL =  11  T = 468.1500  P = 1.500000E+06  V = 0.859361      BETA =  1.00000      Q =-3.401287E+06

    SET IFINAL TO   0

 Report Writer entered                                                            Time =    866.06

      BEGIN CALCULATIONS FOR PROP-TABLE BINRY-1                                   TIME =    866.25
      KODE = 3  NTRIAL =   8  T = 596.3156  P = 1.500000E+06  V =  0.00000      BETA =  1.00000      Q =  0.00000    
      KODE = 3  NTRIAL =  11  T = 584.8493  P = 1.500000E+06  V =  0.00000      BETA =  1.00000      Q =  0.00000    
      KODE = 3  NTRIAL =  11  T = 574.2191  P = 1.500000E+06  V =  0.00000      BETA =  1.00000      Q =  0.00000    
      KODE = 3  NTRIAL =  11  T = 564.5782  P = 1.500000E+06  V =  0.00000      BETA =  1.00000      Q =  0.00000    
      KODE = 3  NTRIAL =  11  T = 555.9453  P = 1.500000E+06  V =  0.00000      BETA =  1.00000      Q =  0.00000    
      KODE = 3  NTRIAL =  11  T = 548.2589  P = 1.500000E+06  V =  0.00000      BETA =  1.00000      Q =  0.00000    
      KODE = 3  NTRIAL =  11  T = 541.4223  P = 1.500000E+06  V =  0.00000      BETA =  1.00000      Q =  0.00000    
      KODE = 3  NTRIAL =  11  T = 535.3309  P = 1.500000E+06  V =  0.00000      BETA =  1.00000      Q =  0.00000    
      KODE = 3  NTRIAL =  11  T = 529.8854  P = 1.500000E+06  V =  0.00000      BETA =  1.00000      Q =  0.00000    
      KODE = 3  NTRIAL =  11  T = 524.9978  P = 1.500000E+06  V =  0.00000      BETA =  1.00000      Q =  0.00000    
      KODE = 3  NTRIAL =  11  T = 520.5922  P = 1.500000E+06  V =  0.00000      BETA =  1.00000      Q =  0.00000    
      KODE = 3  NTRIAL =  11  T = 516.6040  P = 1.500000E+06  V =  0.00000      BETA =  1.00000      Q =  0.00000    
      KODE = 3  NTRIAL =  11  T = 512.9791  P = 1.500000E+06  V =  0.00000      BETA =  1.00000      Q =  0.00000    
      KODE = 3  NTRIAL =  10  T = 509.6717  P = 1.500000E+06  V =  0.00000      BETA =  1.00000      Q =  0.00000    
      KODE = 3  NTRIAL =  10  T = 506.6433  P = 1.500000E+06  V =  0.00000      BETA =  1.00000      Q =  0.00000    
      KODE = 3  NTRIAL =  10  T = 503.8613  P = 1.500000E+06  V =  0.00000      BETA =  1.00000      Q =  0.00000    
      KODE = 3  NTRIAL =   9  T = 501.2981  P = 1.500000E+06  V =  0.00000      BETA =  1.00000      Q =  0.00000    
      KODE = 3  NTRIAL =   9  T = 498.9301  P = 1.500000E+06  V =  0.00000      BETA =  1.00000      Q =  0.00000    
      KODE = 3  NTRIAL =   9  T = 496.7370  P = 1.500000E+06  V =  0.00000      BETA =  1.00000      Q =  0.00000    
      KODE = 3  NTRIAL =   9  T = 494.7014  P = 1.500000E+06  V =  0.00000      BETA =  1.00000      Q =  0.00000    
      KODE = 3  NTRIAL =   9  T = 492.8082  P = 1.500000E+06  V =  0.00000      BETA =  1.00000      Q =  0.00000    
      KODE = 3  NTRIAL =   9  T = 491.0443  P = 1.500000E+06  V =  0.00000      BETA =  1.00000      Q =  0.00000    
      KODE = 3  NTRIAL =   9  T = 489.3981  P = 1.500000E+06  V =  0.00000      BETA =  1.00000      Q =  0.00000    
      KODE = 3  NTRIAL =   9  T = 487.8596  P = 1.500000E+06  V =  0.00000      BETA =  1.00000      Q =  0.00000    
      KODE = 3  NTRIAL =   9  T = 486.4199  P = 1.500000E+06  V =  0.00000      BETA =  1.00000      Q =  0.00000    
      KODE = 3  NTRIAL =   9  T = 485.0711  P = 1.500000E+06  V =  0.00000      BETA =  1.00000      Q =  0.00000    
      KODE = 3  NTRIAL =   9  T = 483.8062  P = 1.500000E+06  V =  0.00000      BETA =  1.00000      Q =  0.00000    
      KODE = 3  NTRIAL =   9  T = 482.6190  P = 1.500000E+06  V =  0.00000      BETA =  1.00000      Q =  0.00000    
      KODE = 3  NTRIAL =   9  T = 481.5039  P = 1.500000E+06  V =  0.00000      BETA =  1.00000      Q =  0.00000    
      KODE = 3  NTRIAL =   9  T = 480.4558  P = 1.500000E+06  V =  0.00000      BETA =  1.00000      Q =  0.00000    
      KODE = 3  NTRIAL =   9  T = 479.4703  P = 1.500000E+06  V =  0.00000      BETA =  1.00000      Q =  0.00000    
      KODE = 3  NTRIAL =   9  T = 478.5433  P = 1.500000E+06  V =  0.00000      BETA =  1.00000      Q =  0.00000    
      KODE = 3  NTRIAL =   9  T = 477.6710  P = 1.500000E+06  V =  0.00000      BETA =  1.00000      Q =  0.00000    
      KODE = 3  NTRIAL =   9  T = 476.8501  P = 1.500000E+06  V =  0.00000      BETA =  1.00000      Q =  0.00000    
      KODE = 3  NTRIAL =   9  T = 476.0776  P = 1.500000E+06  V =  0.00000      BETA =  1.00000      Q =  0.00000    
      KODE = 3  NTRIAL =   9  T = 475.3506  P = 1.500000E+06  V =  0.00000      BETA =  1.00000      Q =  0.00000    
      KODE = 3  NTRIAL =   9  T = 474.6666  P = 1.500000E+06  V =  0.00000      BETA =  1.00000      Q =  0.00000    
      KODE = 3  NTRIAL =  28  T = 474.0232  P = 1.500000E+06  V =  0.00000      BETA =  1.00000      Q =  0.00000    
      KODE = 3  NTRIAL =  28  T = 473.4183  P = 1.500000E+06  V =  0.00000      BETA =  1.00000      Q =  0.00000    
      KODE = 3  NTRIAL =  12  T = 472.8499  P = 1.500000E+06  V =  0.00000      BETA =  1.00000      Q =  0.00000    
      KODE = 3  NTRIAL =  11  T = 472.3161  P = 1.500000E+06  V =  0.00000      BETA =  1.00000      Q =  0.00000    
      KODE = 3  NTRIAL =  11  T = 471.8153  P = 1.500000E+06  V =  0.00000      BETA =  1.00000      Q =  0.00000    
      KODE = 3  NTRIAL =  11  T = 471.3459  P = 1.500000E+06  V =  0.00000      BETA =  1.00000      Q =  0.00000    
      KODE = 3  NTRIAL =  11  T = 470.9063  P = 1.500000E+06  V =  0.00000      BETA =  1.00000      Q =  0.00000    
      KODE = 3  NTRIAL =  11  T = 470.4954  P = 1.500000E+06  V =  0.00000      BETA =  1.00000      Q =  0.00000    
      KODE = 3  NTRIAL =  11  T = 470.1117  P = 1.500000E+06  V =  0.00000      BETA =  1.00000      Q =  0.00000    
      KODE = 3  NTRIAL =  11  T = 469.7540  P = 1.500000E+06  V =  0.00000      BETA =  1.00000      Q =  0.00000    
      KODE = 3  NTRIAL =  11  T = 469.4214  P = 1.500000E+06  V =  0.00000      BETA =  1.00000      Q =  0.00000    
      KODE = 3  NTRIAL =  12  T = 469.1127  P = 1.500000E+06  V =  0.00000      BETA =  1.00000      Q =  0.00000    
      KODE = 3  NTRIAL =  13  T = 468.8270  P = 1.500000E+06  V =  0.00000      BETA =  1.00000      Q =  0.00000    
      KODE = 3  NTRIAL =  15  T = 468.6254  P = 1.500000E+06  V =  0.00000      BETA = 0.994869      Q =  0.00000    
      KODE = 3  NTRIAL =   2  T = 468.6254  P = 1.500000E+06  V =  0.00000      BETA = 0.973741      Q =  0.00000    
      KODE = 3  NTRIAL =   2  T = 468.6254  P = 1.500000E+06  V =  0.00000      BETA = 0.952612      Q =  0.00000    
      KODE = 3  NTRIAL =   2  T = 468.6254  P = 1.500000E+06  V =  0.00000      BETA = 0.931483      Q =  0.00000    
      KODE = 3  NTRIAL =   2  T = 468.6254  P = 1.500000E+06  V =  0.00000      BETA = 0.910355      Q =  0.00000    
      KODE = 3  NTRIAL =   2  T = 468.6254  P = 1.500000E+06  V =  0.00000      BETA = 0.889226      Q =  0.00000    
      KODE = 3  NTRIAL =   2  T = 468.6254  P = 1.500000E+06  V =  0.00000      BETA = 0.868097      Q =  0.00000    
      KODE = 3  NTRIAL =   2  T = 468.6254  P = 1.500000E+06  V =  0.00000      BETA = 0.846969      Q =  0.00000    
      KODE = 3  NTRIAL =   2  T = 468.6254  P = 1.500000E+06  V =  0.00000      BETA = 0.825840      Q =  0.00000    
      KODE = 3  NTRIAL =   2  T = 468.6254  P = 1.500000E+06  V =  0.00000      BETA = 0.804711      Q =  0.00000    
      KODE = 3  NTRIAL =   2  T = 468.6254  P = 1.500000E+06  V =  0.00000      BETA = 0.783583      Q =  0.00000    
      KODE = 3  NTRIAL =   2  T = 468.6254  P = 1.500000E+06  V =  0.00000      BETA = 0.762454      Q =  0.00000    
      KODE = 3  NTRIAL =   2  T = 468.6254  P = 1.500000E+06  V =  0.00000      BETA = 0.741325      Q =  0.00000    
      KODE = 3  NTRIAL =   2  T = 468.6254  P = 1.500000E+06  V =  0.00000      BETA = 0.720197      Q =  0.00000    
      KODE = 3  NTRIAL =   2  T = 468.6254  P = 1.500000E+06  V =  0.00000      BETA = 0.699068      Q =  0.00000    
      KODE = 3  NTRIAL =   2  T = 468.6254  P = 1.500000E+06  V =  0.00000      BETA = 0.677939      Q =  0.00000    
      KODE = 3  NTRIAL =   2  T = 468.6254  P = 1.500000E+06  V =  0.00000      BETA = 0.656811      Q =  0.00000    
      KODE = 3  NTRIAL =   2  T = 468.6254  P = 1.500000E+06  V =  0.00000      BETA = 0.635682      Q =  0.00000    
      KODE = 3  NTRIAL =   2  T = 468.6254  P = 1.500000E+06  V =  0.00000      BETA = 0.614553      Q =  0.00000    
      KODE = 3  NTRIAL =   2  T = 468.6254  P = 1.500000E+06  V =  0.00000      BETA = 0.593424      Q =  0.00000    
      KODE = 3  NTRIAL =   2  T = 468.6254  P = 1.500000E+06  V =  0.00000      BETA = 0.572296      Q =  0.00000    
      KODE = 3  NTRIAL =   2  T = 468.6254  P = 1.500000E+06  V =  0.00000      BETA = 0.551167      Q =  0.00000    
      KODE = 3  NTRIAL =   2  T = 468.6254  P = 1.500000E+06  V =  0.00000      BETA = 0.530038      Q =  0.00000    
      KODE = 3  NTRIAL =   2  T = 468.6254  P = 1.500000E+06  V =  0.00000      BETA = 0.508910      Q =  0.00000    
      KODE = 3  NTRIAL =   2  T = 468.6254  P = 1.500000E+06  V =  0.00000      BETA = 0.487781      Q =  0.00000    
      KODE = 3  NTRIAL =   2  T = 468.6254  P = 1.500000E+06  V =  0.00000      BETA = 0.466652      Q =  0.00000    
      KODE = 3  NTRIAL =   2  T = 468.6254  P = 1.500000E+06  V =  0.00000      BETA = 0.445524      Q =  0.00000    
      KODE = 3  NTRIAL =   2  T = 468.6254  P = 1.500000E+06  V =  0.00000      BETA = 0.424395      Q =  0.00000    
      KODE = 3  NTRIAL =   2  T = 468.6254  P = 1.500000E+06  V =  0.00000      BETA = 0.403266      Q =  0.00000    
      KODE = 3  NTRIAL =   2  T = 468.6254  P = 1.500000E+06  V =  0.00000      BETA = 0.382138      Q =  0.00000    
      KODE = 3  NTRIAL =   2  T = 468.6254  P = 1.500000E+06  V =  0.00000      BETA = 0.361009      Q =  0.00000    
      KODE = 3  NTRIAL =   2  T = 468.6254  P = 1.500000E+06  V =  0.00000      BETA = 0.339880      Q =  0.00000    
      KODE = 3  NTRIAL =   2  T = 468.6254  P = 1.500000E+06  V =  0.00000      BETA = 0.318752      Q =  0.00000    
      KODE = 3  NTRIAL =   2  T = 468.6254  P = 1.500000E+06  V =  0.00000      BETA = 0.297623      Q =  0.00000    
      KODE = 3  NTRIAL =   2  T = 468.6254  P = 1.500000E+06  V =  0.00000      BETA = 0.276494      Q =  0.00000    
      KODE = 3  NTRIAL =   2  T = 468.6254  P = 1.500000E+06  V =  0.00000      BETA = 0.255366      Q =  0.00000    
      KODE = 3  NTRIAL =   2  T = 468.6254  P = 1.500000E+06  V =  0.00000      BETA = 0.234237      Q =  0.00000    
      KODE = 3  NTRIAL =   2  T = 468.6254  P = 1.500000E+06  V =  0.00000      BETA = 0.213108      Q =  0.00000    
      KODE = 3  NTRIAL =   2  T = 468.6254  P = 1.500000E+06  V =  0.00000      BETA = 0.191980      Q =  0.00000    
      KODE = 3  NTRIAL =   2  T = 468.6254  P = 1.500000E+06  V =  0.00000      BETA = 0.170851      Q =  0.00000    
      KODE = 3  NTRIAL =   2  T = 468.6254  P = 1.500000E+06  V =  0.00000      BETA = 0.149722      Q =  0.00000    
      KODE = 3  NTRIAL =   2  T = 468.6254  P = 1.500000E+06  V =  0.00000      BETA = 0.128594      Q =  0.00000    
      KODE = 3  NTRIAL =   2  T = 468.6254  P = 1.500000E+06  V =  0.00000      BETA = 0.107465      Q =  0.00000    
      KODE = 3  NTRIAL =   2  T = 468.6254  P = 1.500000E+06  V =  0.00000      BETA = 8.633616E-02  Q =  0.00000    
      KODE = 3  NTRIAL =   2  T = 468.6254  P = 1.500000E+06  V =  0.00000      BETA = 6.520748E-02  Q =  0.00000    
      KODE = 3  NTRIAL =   2  T = 468.6254  P = 1.500000E+06  V =  0.00000      BETA = 4.407880E-02  Q =  0.00000    
      KODE = 3  NTRIAL =   2  T = 468.6254  P = 1.500000E+06  V =  0.00000      BETA = 2.295012E-02  Q =  0.00000    
      KODE = 3  NTRIAL =   2  T = 468.6254  P = 1.500000E+06  V =  0.00000      BETA = 1.821443E-03  Q =  0.00000    
      KODE = 3  NTRIAL =  17  T = 469.0753  P = 1.500000E+06  V =  0.00000      BETA =  1.00000      Q =  0.00000    
      KODE = 3  NTRIAL =   7  T = 469.9623  P = 1.500000E+06  V =  0.00000      BETA =  1.00000      Q =  0.00000    
      KODE = 3  NTRIAL =   4  T = 471.5536  P = 1.500000E+06  V =  0.00000      BETA =  1.00000      Q =  0.00000    

 Results generated                                                                Time =    866.34

RUN SAVED



 NO ERRORS OR WARNINGS GENERATED
